*SPEF "ieee 1481-1999"
*DESIGN "user_proj_example"
*DATE "11:11:11 Fri 11 11, 1111"
*VENDOR "OpenRCX"
*PROGRAM "Parallel Extraction"
*VERSION "1.0"
*DESIGN_FLOW "NAME_SCOPE LOCAL" "PIN_CAP NONE"
*DIVIDER /
*DELIMITER :
*BUS_DELIMITER []
*T_UNIT 1 NS
*C_UNIT 1 PF
*R_UNIT 1 OHM
*L_UNIT 1 HENRY

*NAME_MAP
*1 io_in[0]
*2 io_in[10]
*3 io_in[11]
*4 io_in[1]
*5 io_in[2]
*6 io_in[3]
*7 io_in[4]
*8 io_in[5]
*9 io_in[6]
*10 io_in[7]
*11 io_in[8]
*12 io_in[9]
*13 net13
*14 net23
*15 net24
*16 net14
*17 net15
*18 net16
*19 net17
*20 net18
*21 net19
*22 net20
*23 net21
*24 net22
*25 io_out[0]
*26 io_out[10]
*27 net25
*28 io_out[1]
*29 io_out[2]
*30 io_out[3]
*31 io_out[4]
*32 io_out[5]
*33 io_out[6]
*34 io_out[7]
*35 io_out[8]
*36 io_out[9]
*39 wb_clk_i
*40 wb_rst_i
*41 _000_
*42 _001_
*43 _002_
*44 _003_
*45 _004_
*46 _005_
*47 _006_
*48 _007_
*49 _008_
*50 _009_
*51 _010_
*52 _011_
*53 _012_
*54 _013_
*55 _014_
*56 _015_
*57 _016_
*58 _017_
*59 _018_
*60 _019_
*61 _020_
*62 _021_
*63 _022_
*64 _023_
*65 _024_
*66 _025_
*67 _026_
*68 _027_
*69 _028_
*70 _029_
*71 _030_
*72 _031_
*73 _032_
*74 _033_
*75 _034_
*76 _035_
*77 _036_
*78 _037_
*79 _038_
*80 _039_
*81 _040_
*82 _041_
*83 _042_
*84 _043_
*85 _044_
*86 _045_
*87 _046_
*88 _047_
*89 _048_
*90 _049_
*91 _050_
*92 _051_
*93 _052_
*94 _053_
*95 _054_
*96 _055_
*97 _056_
*98 _057_
*99 _058_
*100 _059_
*101 _060_
*102 _061_
*103 _062_
*104 _063_
*105 _064_
*106 _065_
*107 _066_
*108 _067_
*109 _068_
*110 _069_
*111 _070_
*112 _071_
*113 _072_
*114 _073_
*115 _074_
*116 _075_
*117 _076_
*118 _077_
*119 _078_
*120 _079_
*121 _080_
*122 _081_
*123 _082_
*124 _083_
*125 _084_
*126 _085_
*127 _086_
*128 _087_
*129 _088_
*130 _089_
*131 _090_
*132 _091_
*133 _092_
*134 _093_
*135 _094_
*136 _095_
*137 _096_
*138 _097_
*139 _098_
*140 _099_
*141 _100_
*142 _101_
*143 _102_
*144 _103_
*145 _104_
*146 _105_
*147 _106_
*148 _107_
*149 _108_
*150 _109_
*151 _110_
*152 _111_
*153 _112_
*154 _113_
*155 _114_
*156 _115_
*157 _116_
*158 _117_
*159 _118_
*160 _119_
*161 _120_
*162 _121_
*163 _122_
*164 _123_
*165 _124_
*166 _125_
*167 _126_
*168 _127_
*169 _128_
*170 _129_
*171 _130_
*172 _131_
*173 _132_
*174 _133_
*175 _134_
*176 _135_
*177 _136_
*178 _137_
*179 _138_
*180 _139_
*181 _140_
*182 _141_
*183 _142_
*184 _143_
*185 _144_
*186 _145_
*187 _146_
*188 _147_
*189 _148_
*190 _149_
*191 _150_
*192 _151_
*193 _152_
*194 _153_
*195 _154_
*196 _155_
*197 _156_
*198 _157_
*199 _158_
*200 _159_
*201 _160_
*202 _161_
*203 _162_
*204 _163_
*205 _164_
*206 _165_
*207 _166_
*208 _167_
*209 _168_
*210 _169_
*211 _170_
*212 _171_
*213 _172_
*214 _173_
*215 _174_
*216 _175_
*217 _176_
*218 _177_
*219 _178_
*220 _179_
*221 _180_
*222 _181_
*223 _182_
*224 _183_
*225 _184_
*226 _185_
*227 _186_
*228 _187_
*229 _188_
*230 _189_
*231 _190_
*232 _191_
*233 _192_
*234 _193_
*235 _194_
*236 _195_
*237 _196_
*238 _197_
*239 _198_
*240 _199_
*241 _200_
*242 _201_
*243 _202_
*244 _203_
*245 _204_
*246 _205_
*247 _206_
*248 _207_
*249 _208_
*250 _209_
*251 _210_
*252 _211_
*253 _212_
*254 _213_
*255 _214_
*256 _215_
*257 _216_
*258 _217_
*259 _218_
*260 _219_
*261 _220_
*262 _221_
*263 _222_
*264 _223_
*265 _224_
*266 _225_
*267 _226_
*268 _227_
*269 _228_
*270 _229_
*271 _230_
*272 _231_
*273 _232_
*274 _233_
*275 _234_
*276 _235_
*277 _236_
*278 _237_
*279 _238_
*280 _239_
*281 _240_
*282 _241_
*283 _242_
*284 _243_
*285 _244_
*286 _245_
*287 _246_
*288 _247_
*289 _248_
*290 _249_
*291 _250_
*292 _251_
*293 _252_
*294 _253_
*295 _254_
*296 _255_
*297 _256_
*298 _257_
*299 _258_
*300 _259_
*301 _260_
*302 _261_
*303 _262_
*304 _263_
*305 _264_
*306 _265_
*307 _266_
*308 _267_
*309 _268_
*310 _269_
*311 _270_
*312 _271_
*313 _272_
*314 _273_
*315 _274_
*316 _275_
*317 _276_
*318 _277_
*319 _278_
*320 _279_
*321 _280_
*322 _281_
*323 _282_
*324 _283_
*325 _284_
*326 _285_
*327 _286_
*328 _287_
*329 _288_
*330 _289_
*331 _290_
*332 _291_
*333 _292_
*334 _293_
*335 _294_
*336 _295_
*337 _296_
*338 _297_
*339 _298_
*340 _299_
*341 _300_
*342 _301_
*343 _302_
*344 _303_
*345 _304_
*346 _305_
*347 _306_
*348 _307_
*349 _308_
*350 _309_
*351 _310_
*352 _311_
*353 _312_
*354 _313_
*355 _314_
*356 _315_
*357 _316_
*358 _317_
*359 _318_
*360 _319_
*361 _320_
*362 _321_
*363 _322_
*364 _323_
*365 _324_
*366 _325_
*367 _326_
*368 _327_
*369 _328_
*370 _329_
*371 _330_
*372 _331_
*373 _332_
*374 _333_
*375 _334_
*376 _335_
*377 _336_
*378 _337_
*379 _338_
*380 _339_
*381 _340_
*382 _341_
*383 _342_
*384 _343_
*385 _344_
*386 _345_
*387 _346_
*388 _347_
*389 _348_
*390 _349_
*391 _350_
*392 _351_
*393 _352_
*394 _353_
*395 _354_
*396 _355_
*397 _356_
*398 _357_
*399 _358_
*400 _359_
*401 _360_
*402 _361_
*403 _362_
*404 _363_
*405 _364_
*406 _365_
*407 _366_
*408 _367_
*409 _368_
*410 _369_
*411 _370_
*412 _371_
*413 _372_
*414 _373_
*415 _374_
*416 _375_
*417 _376_
*418 _377_
*419 _378_
*420 _379_
*421 _380_
*422 _381_
*423 _382_
*424 _383_
*425 _384_
*426 _385_
*427 _386_
*428 _387_
*429 _388_
*430 _389_
*431 _390_
*432 _391_
*433 _392_
*434 _393_
*435 _394_
*436 _395_
*437 _396_
*438 _397_
*439 _398_
*440 _399_
*441 _400_
*442 _401_
*443 _402_
*444 _403_
*445 _404_
*446 _405_
*447 _406_
*448 _407_
*449 _408_
*450 _409_
*451 _410_
*452 _411_
*453 _412_
*454 _413_
*455 _414_
*456 _415_
*457 _416_
*458 _417_
*459 _418_
*460 _419_
*461 _420_
*462 _421_
*463 _422_
*464 _423_
*465 _424_
*466 _425_
*467 _426_
*468 _427_
*469 _428_
*470 _429_
*471 _430_
*472 _431_
*473 _432_
*474 _433_
*475 _434_
*476 _435_
*477 _436_
*478 _437_
*479 _438_
*480 _439_
*481 _440_
*482 _441_
*483 _442_
*484 _443_
*485 clknet_0_wb_clk_i
*486 clknet_3_0__leaf_wb_clk_i
*487 clknet_3_1__leaf_wb_clk_i
*488 clknet_3_2__leaf_wb_clk_i
*489 clknet_3_3__leaf_wb_clk_i
*490 clknet_3_4__leaf_wb_clk_i
*491 clknet_3_5__leaf_wb_clk_i
*492 clknet_3_6__leaf_wb_clk_i
*493 clknet_3_7__leaf_wb_clk_i
*494 net1
*495 net10
*496 net11
*497 net12
*498 net2
*499 net3
*500 net4
*501 net5
*502 net6
*503 net7
*504 net8
*505 net9
*506 timer_1\.dig_cnt\[0\]
*507 timer_1\.dig_cnt\[1\]
*508 timer_1\.min_ones\[0\]
*509 timer_1\.min_ones\[1\]
*510 timer_1\.min_ones\[2\]
*511 timer_1\.min_ones\[3\]
*512 timer_1\.min_tens\[0\]
*513 timer_1\.min_tens\[1\]
*514 timer_1\.min_tens\[2\]
*515 timer_1\.min_tens\[3\]
*516 timer_1\.scan
*517 timer_1\.scan_div\[0\]
*518 timer_1\.scan_div\[10\]
*519 timer_1\.scan_div\[11\]
*520 timer_1\.scan_div\[12\]
*521 timer_1\.scan_div\[13\]
*522 timer_1\.scan_div\[14\]
*523 timer_1\.scan_div\[15\]
*524 timer_1\.scan_div\[16\]
*525 timer_1\.scan_div\[17\]
*526 timer_1\.scan_div\[18\]
*527 timer_1\.scan_div\[19\]
*528 timer_1\.scan_div\[1\]
*529 timer_1\.scan_div\[20\]
*530 timer_1\.scan_div\[21\]
*531 timer_1\.scan_div\[22\]
*532 timer_1\.scan_div\[23\]
*533 timer_1\.scan_div\[24\]
*534 timer_1\.scan_div\[25\]
*535 timer_1\.scan_div\[26\]
*536 timer_1\.scan_div\[27\]
*537 timer_1\.scan_div\[28\]
*538 timer_1\.scan_div\[29\]
*539 timer_1\.scan_div\[2\]
*540 timer_1\.scan_div\[30\]
*541 timer_1\.scan_div\[31\]
*542 timer_1\.scan_div\[3\]
*543 timer_1\.scan_div\[4\]
*544 timer_1\.scan_div\[5\]
*545 timer_1\.scan_div\[6\]
*546 timer_1\.scan_div\[7\]
*547 timer_1\.scan_div\[8\]
*548 timer_1\.scan_div\[9\]
*549 timer_1\.sec
*550 timer_1\.sec_div\[0\]
*551 timer_1\.sec_div\[10\]
*552 timer_1\.sec_div\[11\]
*553 timer_1\.sec_div\[12\]
*554 timer_1\.sec_div\[13\]
*555 timer_1\.sec_div\[14\]
*556 timer_1\.sec_div\[15\]
*557 timer_1\.sec_div\[16\]
*558 timer_1\.sec_div\[17\]
*559 timer_1\.sec_div\[18\]
*560 timer_1\.sec_div\[19\]
*561 timer_1\.sec_div\[1\]
*562 timer_1\.sec_div\[20\]
*563 timer_1\.sec_div\[21\]
*564 timer_1\.sec_div\[22\]
*565 timer_1\.sec_div\[23\]
*566 timer_1\.sec_div\[24\]
*567 timer_1\.sec_div\[25\]
*568 timer_1\.sec_div\[26\]
*569 timer_1\.sec_div\[27\]
*570 timer_1\.sec_div\[28\]
*571 timer_1\.sec_div\[29\]
*572 timer_1\.sec_div\[2\]
*573 timer_1\.sec_div\[30\]
*574 timer_1\.sec_div\[31\]
*575 timer_1\.sec_div\[3\]
*576 timer_1\.sec_div\[4\]
*577 timer_1\.sec_div\[5\]
*578 timer_1\.sec_div\[6\]
*579 timer_1\.sec_div\[7\]
*580 timer_1\.sec_div\[8\]
*581 timer_1\.sec_div\[9\]
*582 timer_1\.sec_ones\[0\]
*583 timer_1\.sec_ones\[1\]
*584 timer_1\.sec_ones\[2\]
*585 timer_1\.sec_ones\[3\]
*586 timer_1\.sec_tens\[0\]
*587 timer_1\.sec_tens\[1\]
*588 timer_1\.sec_tens\[2\]
*589 timer_1\.sec_tens\[3\]
*590 ANTENNA_1
*591 ANTENNA_2
*592 ANTENNA_3
*593 ANTENNA_4
*594 ANTENNA_5
*595 ANTENNA__451__B1
*596 ANTENNA__462__A1
*597 ANTENNA__491__A1
*598 ANTENNA__497__A1
*599 ANTENNA__556__A1
*600 ANTENNA__763__I
*601 ANTENNA__765__I
*602 ANTENNA__766__A1
*603 ANTENNA__767__I1
*604 ANTENNA__768__I
*605 ANTENNA__770__I
*606 ANTENNA__773__A1
*607 ANTENNA__773__A2
*608 ANTENNA__776__A1
*609 ANTENNA__779__A1
*610 ANTENNA__780__B
*611 ANTENNA__783__I
*612 ANTENNA__786__A1
*613 ANTENNA__788__I
*614 ANTENNA__811__I
*615 ANTENNA__816__I
*616 ANTENNA__821__I
*617 ANTENNA__826__I
*618 ANTENNA__832__I
*619 ANTENNA__837__I
*620 ANTENNA__842__I
*621 ANTENNA__847__I
*622 ANTENNA__852__I
*623 ANTENNA__873__I
*624 ANTENNA__874__I
*625 ANTENNA__879__I
*626 ANTENNA__884__I
*627 ANTENNA__889__I
*628 ANTENNA__895__I
*629 ANTENNA__896__I
*630 ANTENNA__897__I
*631 ANTENNA__898__I
*632 ANTENNA__899__CLK
*633 ANTENNA__900__CLK
*634 ANTENNA__901__CLK
*635 ANTENNA__902__CLK
*636 ANTENNA__903__CLK
*637 ANTENNA__904__CLK
*638 ANTENNA__905__CLK
*639 ANTENNA__906__CLK
*640 ANTENNA__907__CLK
*641 ANTENNA__908__CLK
*642 ANTENNA__909__CLK
*643 ANTENNA__910__CLK
*644 ANTENNA__911__CLK
*645 ANTENNA__912__CLK
*646 ANTENNA__913__CLK
*647 ANTENNA__914__CLK
*648 ANTENNA__915__CLK
*649 ANTENNA__916__CLK
*650 ANTENNA__917__CLK
*651 ANTENNA__918__CLK
*652 ANTENNA__919__CLK
*653 ANTENNA__920__CLK
*654 ANTENNA__921__CLK
*655 ANTENNA__922__CLK
*656 ANTENNA__923__CLK
*657 ANTENNA__924__CLK
*658 ANTENNA__925__CLK
*659 ANTENNA__926__CLK
*660 ANTENNA__927__CLK
*661 ANTENNA__928__CLK
*662 ANTENNA__929__CLK
*663 ANTENNA__932__CLK
*664 ANTENNA__935__CLK
*665 ANTENNA__936__CLK
*666 ANTENNA__937__CLK
*667 ANTENNA__938__CLK
*668 ANTENNA__939__CLK
*669 ANTENNA__940__CLK
*670 ANTENNA__941__CLK
*671 ANTENNA__942__CLK
*672 ANTENNA__943__CLK
*673 ANTENNA__944__CLK
*674 ANTENNA__945__CLK
*675 ANTENNA__946__CLK
*676 ANTENNA__947__CLK
*677 ANTENNA__948__CLK
*678 ANTENNA__949__CLK
*679 ANTENNA__950__CLK
*680 ANTENNA__951__CLK
*681 ANTENNA__952__CLK
*682 ANTENNA__953__CLK
*683 ANTENNA__954__CLK
*684 ANTENNA__955__CLK
*685 ANTENNA__956__CLK
*686 ANTENNA__957__CLK
*687 ANTENNA__958__CLK
*688 ANTENNA__964__CLK
*689 ANTENNA__965__CLK
*690 ANTENNA__966__CLK
*691 ANTENNA__967__CLK
*692 ANTENNA__968__CLK
*693 ANTENNA__969__CLK
*694 ANTENNA__970__CLK
*695 ANTENNA__971__CLK
*696 ANTENNA__972__CLK
*697 ANTENNA__973__CLK
*698 ANTENNA__974__CLK
*699 ANTENNA__975__CLK
*700 ANTENNA__976__CLK
*701 ANTENNA__977__CLK
*702 ANTENNA__978__CLK
*703 ANTENNA__979__CLK
*704 ANTENNA__980__CLK
*705 ANTENNA__981__CLK
*706 ANTENNA__982__CLK
*707 ANTENNA_clkbuf_0_wb_clk_i_I
*708 ANTENNA_clkbuf_3_0__f_wb_clk_i_I
*709 ANTENNA_clkbuf_3_1__f_wb_clk_i_I
*710 ANTENNA_clkbuf_3_2__f_wb_clk_i_I
*711 ANTENNA_clkbuf_3_3__f_wb_clk_i_I
*712 ANTENNA_clkbuf_3_4__f_wb_clk_i_I
*713 ANTENNA_clkbuf_3_5__f_wb_clk_i_I
*714 ANTENNA_clkbuf_3_6__f_wb_clk_i_I
*715 ANTENNA_clkbuf_3_7__f_wb_clk_i_I
*716 ANTENNA_input1_I
*717 ANTENNA_output10_I
*718 ANTENNA_output11_I
*719 ANTENNA_output12_I
*720 ANTENNA_output2_I
*721 ANTENNA_output3_I
*722 ANTENNA_output4_I
*723 ANTENNA_output6_I
*724 ANTENNA_output8_I
*725 ANTENNA_output9_I
*726 FILLER_0_0_1022
*727 FILLER_0_0_104
*728 FILLER_0_0_1056
*729 FILLER_0_0_1090
*730 FILLER_0_0_1124
*731 FILLER_0_0_1158
*732 FILLER_0_0_1192
*733 FILLER_0_0_1226
*734 FILLER_0_0_1260
*735 FILLER_0_0_1294
*736 FILLER_0_0_1328
*737 FILLER_0_0_1362
*738 FILLER_0_0_138
*739 FILLER_0_0_1396
*740 FILLER_0_0_1430
*741 FILLER_0_0_1464
*742 FILLER_0_0_1498
*743 FILLER_0_0_1532
*744 FILLER_0_0_1566
*745 FILLER_0_0_1600
*746 FILLER_0_0_1634
*747 FILLER_0_0_1668
*748 FILLER_0_0_1702
*749 FILLER_0_0_172
*750 FILLER_0_0_1736
*751 FILLER_0_0_1770
*752 FILLER_0_0_1804
*753 FILLER_0_0_1838
*754 FILLER_0_0_1872
*755 FILLER_0_0_1906
*756 FILLER_0_0_1940
*757 FILLER_0_0_1974
*758 FILLER_0_0_2
*759 FILLER_0_0_2008
*760 FILLER_0_0_2042
*761 FILLER_0_0_206
*762 FILLER_0_0_2076
*763 FILLER_0_0_2110
*764 FILLER_0_0_2144
*765 FILLER_0_0_2178
*766 FILLER_0_0_2212
*767 FILLER_0_0_2246
*768 FILLER_0_0_2280
*769 FILLER_0_0_2314
*770 FILLER_0_0_2348
*771 FILLER_0_0_2382
*772 FILLER_0_0_240
*773 FILLER_0_0_2416
*774 FILLER_0_0_2450
*775 FILLER_0_0_2484
*776 FILLER_0_0_2518
*777 FILLER_0_0_2552
*778 FILLER_0_0_2586
*779 FILLER_0_0_2620
*780 FILLER_0_0_2654
*781 FILLER_0_0_2688
*782 FILLER_0_0_2722
*783 FILLER_0_0_274
*784 FILLER_0_0_2756
*785 FILLER_0_0_2790
*786 FILLER_0_0_2824
*787 FILLER_0_0_2858
*788 FILLER_0_0_2892
*789 FILLER_0_0_2926
*790 FILLER_0_0_2960
*791 FILLER_0_0_2994
*792 FILLER_0_0_3028
*793 FILLER_0_0_3062
*794 FILLER_0_0_308
*795 FILLER_0_0_3096
*796 FILLER_0_0_3130
*797 FILLER_0_0_3164
*798 FILLER_0_0_3198
*799 FILLER_0_0_3232
*800 FILLER_0_0_3266
*801 FILLER_0_0_3300
*802 FILLER_0_0_3334
*803 FILLER_0_0_3368
*804 FILLER_0_0_3402
*805 FILLER_0_0_342
*806 FILLER_0_0_3436
*807 FILLER_0_0_3470
*808 FILLER_0_0_3504
*809 FILLER_0_0_3538
*810 FILLER_0_0_3572
*811 FILLER_0_0_36
*812 FILLER_0_0_3606
*813 FILLER_0_0_3640
*814 FILLER_0_0_3674
*815 FILLER_0_0_3708
*816 FILLER_0_0_3724
*817 FILLER_0_0_3732
*818 FILLER_0_0_3736
*819 FILLER_0_0_3756
*820 FILLER_0_0_376
*821 FILLER_0_0_3772
*822 FILLER_0_0_3776
*823 FILLER_0_0_3810
*824 FILLER_0_0_3844
*825 FILLER_0_0_3878
*826 FILLER_0_0_3912
*827 FILLER_0_0_3946
*828 FILLER_0_0_3980
*829 FILLER_0_0_4014
*830 FILLER_0_0_4048
*831 FILLER_0_0_4082
*832 FILLER_0_0_410
*833 FILLER_0_0_4116
*834 FILLER_0_0_4150
*835 FILLER_0_0_4184
*836 FILLER_0_0_4218
*837 FILLER_0_0_4252
*838 FILLER_0_0_4286
*839 FILLER_0_0_4320
*840 FILLER_0_0_4354
*841 FILLER_0_0_4388
*842 FILLER_0_0_4422
*843 FILLER_0_0_444
*844 FILLER_0_0_4456
*845 FILLER_0_0_4490
*846 FILLER_0_0_4524
*847 FILLER_0_0_4558
*848 FILLER_0_0_4592
*849 FILLER_0_0_4626
*850 FILLER_0_0_4660
*851 FILLER_0_0_4694
*852 FILLER_0_0_4728
*853 FILLER_0_0_4762
*854 FILLER_0_0_478
*855 FILLER_0_0_4796
*856 FILLER_0_0_4830
*857 FILLER_0_0_4864
*858 FILLER_0_0_4898
*859 FILLER_0_0_4932
*860 FILLER_0_0_4966
*861 FILLER_0_0_512
*862 FILLER_0_0_546
*863 FILLER_0_0_580
*864 FILLER_0_0_614
*865 FILLER_0_0_648
*866 FILLER_0_0_682
*867 FILLER_0_0_70
*868 FILLER_0_0_716
*869 FILLER_0_0_750
*870 FILLER_0_0_784
*871 FILLER_0_0_818
*872 FILLER_0_0_852
*873 FILLER_0_0_886
*874 FILLER_0_0_920
*875 FILLER_0_0_954
*876 FILLER_0_0_988
*877 FILLER_0_100_101
*878 FILLER_0_100_1011
*879 FILLER_0_100_1017
*880 FILLER_0_100_107
*881 FILLER_0_100_1081
*882 FILLER_0_100_1087
*883 FILLER_0_100_1151
*884 FILLER_0_100_1157
*885 FILLER_0_100_1221
*886 FILLER_0_100_1227
*887 FILLER_0_100_1291
*888 FILLER_0_100_1297
*889 FILLER_0_100_1361
*890 FILLER_0_100_1367
*891 FILLER_0_100_1431
*892 FILLER_0_100_1437
*893 FILLER_0_100_1501
*894 FILLER_0_100_1507
*895 FILLER_0_100_1571
*896 FILLER_0_100_1577
*897 FILLER_0_100_1641
*898 FILLER_0_100_1647
*899 FILLER_0_100_171
*900 FILLER_0_100_1711
*901 FILLER_0_100_1717
*902 FILLER_0_100_177
*903 FILLER_0_100_1781
*904 FILLER_0_100_1787
*905 FILLER_0_100_1851
*906 FILLER_0_100_1857
*907 FILLER_0_100_1921
*908 FILLER_0_100_1927
*909 FILLER_0_100_1991
*910 FILLER_0_100_1997
*911 FILLER_0_100_2
*912 FILLER_0_100_2061
*913 FILLER_0_100_2067
*914 FILLER_0_100_2131
*915 FILLER_0_100_2137
*916 FILLER_0_100_2201
*917 FILLER_0_100_2207
*918 FILLER_0_100_2271
*919 FILLER_0_100_2277
*920 FILLER_0_100_2341
*921 FILLER_0_100_2347
*922 FILLER_0_100_241
*923 FILLER_0_100_2411
*924 FILLER_0_100_2417
*925 FILLER_0_100_247
*926 FILLER_0_100_2481
*927 FILLER_0_100_2487
*928 FILLER_0_100_2551
*929 FILLER_0_100_2557
*930 FILLER_0_100_2621
*931 FILLER_0_100_2627
*932 FILLER_0_100_2691
*933 FILLER_0_100_2697
*934 FILLER_0_100_2761
*935 FILLER_0_100_2767
*936 FILLER_0_100_2831
*937 FILLER_0_100_2837
*938 FILLER_0_100_2901
*939 FILLER_0_100_2907
*940 FILLER_0_100_2971
*941 FILLER_0_100_2977
*942 FILLER_0_100_3041
*943 FILLER_0_100_3047
*944 FILLER_0_100_311
*945 FILLER_0_100_3111
*946 FILLER_0_100_3117
*947 FILLER_0_100_317
*948 FILLER_0_100_3181
*949 FILLER_0_100_3187
*950 FILLER_0_100_3251
*951 FILLER_0_100_3257
*952 FILLER_0_100_3321
*953 FILLER_0_100_3327
*954 FILLER_0_100_3391
*955 FILLER_0_100_3397
*956 FILLER_0_100_34
*957 FILLER_0_100_3461
*958 FILLER_0_100_3467
*959 FILLER_0_100_3531
*960 FILLER_0_100_3537
*961 FILLER_0_100_3601
*962 FILLER_0_100_3607
*963 FILLER_0_100_3671
*964 FILLER_0_100_3677
*965 FILLER_0_100_37
*966 FILLER_0_100_3741
*967 FILLER_0_100_3747
*968 FILLER_0_100_381
*969 FILLER_0_100_3811
*970 FILLER_0_100_3817
*971 FILLER_0_100_387
*972 FILLER_0_100_3881
*973 FILLER_0_100_3887
*974 FILLER_0_100_3951
*975 FILLER_0_100_3957
*976 FILLER_0_100_4021
*977 FILLER_0_100_4027
*978 FILLER_0_100_4091
*979 FILLER_0_100_4097
*980 FILLER_0_100_4161
*981 FILLER_0_100_4167
*982 FILLER_0_100_4231
*983 FILLER_0_100_4237
*984 FILLER_0_100_4301
*985 FILLER_0_100_4307
*986 FILLER_0_100_4371
*987 FILLER_0_100_4377
*988 FILLER_0_100_4441
*989 FILLER_0_100_4447
*990 FILLER_0_100_451
*991 FILLER_0_100_4511
*992 FILLER_0_100_4517
*993 FILLER_0_100_457
*994 FILLER_0_100_4581
*995 FILLER_0_100_4587
*996 FILLER_0_100_4651
*997 FILLER_0_100_4657
*998 FILLER_0_100_4671
*999 FILLER_0_100_4679
*1000 FILLER_0_100_4683
*1001 FILLER_0_100_4696
*1002 FILLER_0_100_4712
*1003 FILLER_0_100_4716
*1004 FILLER_0_100_4727
*1005 FILLER_0_100_4731
*1006 FILLER_0_100_4783
*1007 FILLER_0_100_4791
*1008 FILLER_0_100_4797
*1009 FILLER_0_100_4806
*1010 FILLER_0_100_4814
*1011 FILLER_0_100_4818
*1012 FILLER_0_100_4820
*1013 FILLER_0_100_4833
*1014 FILLER_0_100_4867
*1015 FILLER_0_100_4883
*1016 FILLER_0_100_4892
*1017 FILLER_0_100_4911
*1018 FILLER_0_100_4925
*1019 FILLER_0_100_4971
*1020 FILLER_0_100_4973
*1021 FILLER_0_100_521
*1022 FILLER_0_100_527
*1023 FILLER_0_100_591
*1024 FILLER_0_100_597
*1025 FILLER_0_100_661
*1026 FILLER_0_100_667
*1027 FILLER_0_100_731
*1028 FILLER_0_100_737
*1029 FILLER_0_100_801
*1030 FILLER_0_100_807
*1031 FILLER_0_100_871
*1032 FILLER_0_100_877
*1033 FILLER_0_100_941
*1034 FILLER_0_100_947
*1035 FILLER_0_101_1046
*1036 FILLER_0_101_1052
*1037 FILLER_0_101_1116
*1038 FILLER_0_101_1122
*1039 FILLER_0_101_1186
*1040 FILLER_0_101_1192
*1041 FILLER_0_101_1256
*1042 FILLER_0_101_1262
*1043 FILLER_0_101_1326
*1044 FILLER_0_101_1332
*1045 FILLER_0_101_136
*1046 FILLER_0_101_1396
*1047 FILLER_0_101_1402
*1048 FILLER_0_101_142
*1049 FILLER_0_101_1466
*1050 FILLER_0_101_1472
*1051 FILLER_0_101_1536
*1052 FILLER_0_101_1542
*1053 FILLER_0_101_1606
*1054 FILLER_0_101_1612
*1055 FILLER_0_101_1676
*1056 FILLER_0_101_1682
*1057 FILLER_0_101_1746
*1058 FILLER_0_101_1752
*1059 FILLER_0_101_1816
*1060 FILLER_0_101_1822
*1061 FILLER_0_101_1886
*1062 FILLER_0_101_1892
*1063 FILLER_0_101_1956
*1064 FILLER_0_101_1962
*1065 FILLER_0_101_2
*1066 FILLER_0_101_2026
*1067 FILLER_0_101_2032
*1068 FILLER_0_101_206
*1069 FILLER_0_101_2096
*1070 FILLER_0_101_2102
*1071 FILLER_0_101_212
*1072 FILLER_0_101_2166
*1073 FILLER_0_101_2172
*1074 FILLER_0_101_2236
*1075 FILLER_0_101_2242
*1076 FILLER_0_101_2306
*1077 FILLER_0_101_2312
*1078 FILLER_0_101_2376
*1079 FILLER_0_101_2382
*1080 FILLER_0_101_2446
*1081 FILLER_0_101_2452
*1082 FILLER_0_101_2516
*1083 FILLER_0_101_2522
*1084 FILLER_0_101_2586
*1085 FILLER_0_101_2592
*1086 FILLER_0_101_2656
*1087 FILLER_0_101_2662
*1088 FILLER_0_101_2726
*1089 FILLER_0_101_2732
*1090 FILLER_0_101_276
*1091 FILLER_0_101_2796
*1092 FILLER_0_101_2802
*1093 FILLER_0_101_282
*1094 FILLER_0_101_2866
*1095 FILLER_0_101_2872
*1096 FILLER_0_101_2936
*1097 FILLER_0_101_2942
*1098 FILLER_0_101_3006
*1099 FILLER_0_101_3012
*1100 FILLER_0_101_3076
*1101 FILLER_0_101_3082
*1102 FILLER_0_101_3146
*1103 FILLER_0_101_3152
*1104 FILLER_0_101_3216
*1105 FILLER_0_101_3222
*1106 FILLER_0_101_3286
*1107 FILLER_0_101_3292
*1108 FILLER_0_101_3356
*1109 FILLER_0_101_3362
*1110 FILLER_0_101_3426
*1111 FILLER_0_101_3432
*1112 FILLER_0_101_346
*1113 FILLER_0_101_3496
*1114 FILLER_0_101_3502
*1115 FILLER_0_101_352
*1116 FILLER_0_101_3566
*1117 FILLER_0_101_3572
*1118 FILLER_0_101_3636
*1119 FILLER_0_101_3642
*1120 FILLER_0_101_3706
*1121 FILLER_0_101_3712
*1122 FILLER_0_101_3776
*1123 FILLER_0_101_3782
*1124 FILLER_0_101_3846
*1125 FILLER_0_101_3852
*1126 FILLER_0_101_3916
*1127 FILLER_0_101_3922
*1128 FILLER_0_101_3986
*1129 FILLER_0_101_3992
*1130 FILLER_0_101_4056
*1131 FILLER_0_101_4062
*1132 FILLER_0_101_4126
*1133 FILLER_0_101_4132
*1134 FILLER_0_101_416
*1135 FILLER_0_101_4196
*1136 FILLER_0_101_4202
*1137 FILLER_0_101_422
*1138 FILLER_0_101_4266
*1139 FILLER_0_101_4272
*1140 FILLER_0_101_4336
*1141 FILLER_0_101_4342
*1142 FILLER_0_101_4406
*1143 FILLER_0_101_4412
*1144 FILLER_0_101_4476
*1145 FILLER_0_101_4482
*1146 FILLER_0_101_4546
*1147 FILLER_0_101_4552
*1148 FILLER_0_101_4616
*1149 FILLER_0_101_4622
*1150 FILLER_0_101_4686
*1151 FILLER_0_101_4697
*1152 FILLER_0_101_4737
*1153 FILLER_0_101_4753
*1154 FILLER_0_101_4757
*1155 FILLER_0_101_4759
*1156 FILLER_0_101_4762
*1157 FILLER_0_101_4766
*1158 FILLER_0_101_4828
*1159 FILLER_0_101_4832
*1160 FILLER_0_101_4848
*1161 FILLER_0_101_4852
*1162 FILLER_0_101_4854
*1163 FILLER_0_101_486
*1164 FILLER_0_101_4861
*1165 FILLER_0_101_4893
*1166 FILLER_0_101_4897
*1167 FILLER_0_101_4899
*1168 FILLER_0_101_4902
*1169 FILLER_0_101_492
*1170 FILLER_0_101_4920
*1171 FILLER_0_101_4952
*1172 FILLER_0_101_4968
*1173 FILLER_0_101_4972
*1174 FILLER_0_101_556
*1175 FILLER_0_101_562
*1176 FILLER_0_101_626
*1177 FILLER_0_101_632
*1178 FILLER_0_101_66
*1179 FILLER_0_101_696
*1180 FILLER_0_101_702
*1181 FILLER_0_101_72
*1182 FILLER_0_101_766
*1183 FILLER_0_101_772
*1184 FILLER_0_101_836
*1185 FILLER_0_101_842
*1186 FILLER_0_101_906
*1187 FILLER_0_101_912
*1188 FILLER_0_101_976
*1189 FILLER_0_101_982
*1190 FILLER_0_102_101
*1191 FILLER_0_102_1011
*1192 FILLER_0_102_1017
*1193 FILLER_0_102_107
*1194 FILLER_0_102_1081
*1195 FILLER_0_102_1087
*1196 FILLER_0_102_1151
*1197 FILLER_0_102_1157
*1198 FILLER_0_102_1221
*1199 FILLER_0_102_1227
*1200 FILLER_0_102_1291
*1201 FILLER_0_102_1297
*1202 FILLER_0_102_1361
*1203 FILLER_0_102_1367
*1204 FILLER_0_102_1431
*1205 FILLER_0_102_1437
*1206 FILLER_0_102_1501
*1207 FILLER_0_102_1507
*1208 FILLER_0_102_1571
*1209 FILLER_0_102_1577
*1210 FILLER_0_102_1641
*1211 FILLER_0_102_1647
*1212 FILLER_0_102_171
*1213 FILLER_0_102_1711
*1214 FILLER_0_102_1717
*1215 FILLER_0_102_177
*1216 FILLER_0_102_1781
*1217 FILLER_0_102_1787
*1218 FILLER_0_102_1851
*1219 FILLER_0_102_1857
*1220 FILLER_0_102_1921
*1221 FILLER_0_102_1927
*1222 FILLER_0_102_1991
*1223 FILLER_0_102_1997
*1224 FILLER_0_102_2
*1225 FILLER_0_102_2061
*1226 FILLER_0_102_2067
*1227 FILLER_0_102_2131
*1228 FILLER_0_102_2137
*1229 FILLER_0_102_2201
*1230 FILLER_0_102_2207
*1231 FILLER_0_102_2271
*1232 FILLER_0_102_2277
*1233 FILLER_0_102_2341
*1234 FILLER_0_102_2347
*1235 FILLER_0_102_241
*1236 FILLER_0_102_2411
*1237 FILLER_0_102_2417
*1238 FILLER_0_102_247
*1239 FILLER_0_102_2481
*1240 FILLER_0_102_2487
*1241 FILLER_0_102_2551
*1242 FILLER_0_102_2557
*1243 FILLER_0_102_2621
*1244 FILLER_0_102_2627
*1245 FILLER_0_102_2691
*1246 FILLER_0_102_2697
*1247 FILLER_0_102_2761
*1248 FILLER_0_102_2767
*1249 FILLER_0_102_2831
*1250 FILLER_0_102_2837
*1251 FILLER_0_102_2901
*1252 FILLER_0_102_2907
*1253 FILLER_0_102_2971
*1254 FILLER_0_102_2977
*1255 FILLER_0_102_3041
*1256 FILLER_0_102_3047
*1257 FILLER_0_102_311
*1258 FILLER_0_102_3111
*1259 FILLER_0_102_3117
*1260 FILLER_0_102_317
*1261 FILLER_0_102_3181
*1262 FILLER_0_102_3187
*1263 FILLER_0_102_3251
*1264 FILLER_0_102_3257
*1265 FILLER_0_102_3321
*1266 FILLER_0_102_3327
*1267 FILLER_0_102_3391
*1268 FILLER_0_102_3397
*1269 FILLER_0_102_34
*1270 FILLER_0_102_3461
*1271 FILLER_0_102_3467
*1272 FILLER_0_102_3531
*1273 FILLER_0_102_3537
*1274 FILLER_0_102_3601
*1275 FILLER_0_102_3607
*1276 FILLER_0_102_3671
*1277 FILLER_0_102_3677
*1278 FILLER_0_102_37
*1279 FILLER_0_102_3741
*1280 FILLER_0_102_3747
*1281 FILLER_0_102_381
*1282 FILLER_0_102_3811
*1283 FILLER_0_102_3817
*1284 FILLER_0_102_387
*1285 FILLER_0_102_3881
*1286 FILLER_0_102_3887
*1287 FILLER_0_102_3951
*1288 FILLER_0_102_3957
*1289 FILLER_0_102_4021
*1290 FILLER_0_102_4027
*1291 FILLER_0_102_4091
*1292 FILLER_0_102_4097
*1293 FILLER_0_102_4161
*1294 FILLER_0_102_4167
*1295 FILLER_0_102_4231
*1296 FILLER_0_102_4237
*1297 FILLER_0_102_4301
*1298 FILLER_0_102_4307
*1299 FILLER_0_102_4371
*1300 FILLER_0_102_4377
*1301 FILLER_0_102_4441
*1302 FILLER_0_102_4447
*1303 FILLER_0_102_451
*1304 FILLER_0_102_4511
*1305 FILLER_0_102_4517
*1306 FILLER_0_102_457
*1307 FILLER_0_102_4581
*1308 FILLER_0_102_4587
*1309 FILLER_0_102_4651
*1310 FILLER_0_102_4657
*1311 FILLER_0_102_4665
*1312 FILLER_0_102_4672
*1313 FILLER_0_102_4697
*1314 FILLER_0_102_4713
*1315 FILLER_0_102_4717
*1316 FILLER_0_102_4723
*1317 FILLER_0_102_4738
*1318 FILLER_0_102_4754
*1319 FILLER_0_102_4762
*1320 FILLER_0_102_4782
*1321 FILLER_0_102_4790
*1322 FILLER_0_102_4794
*1323 FILLER_0_102_4797
*1324 FILLER_0_102_4799
*1325 FILLER_0_102_4806
*1326 FILLER_0_102_4828
*1327 FILLER_0_102_4844
*1328 FILLER_0_102_4848
*1329 FILLER_0_102_4855
*1330 FILLER_0_102_4861
*1331 FILLER_0_102_4867
*1332 FILLER_0_102_4875
*1333 FILLER_0_102_4914
*1334 FILLER_0_102_4930
*1335 FILLER_0_102_4934
*1336 FILLER_0_102_4937
*1337 FILLER_0_102_4951
*1338 FILLER_0_102_4959
*1339 FILLER_0_102_4964
*1340 FILLER_0_102_4972
*1341 FILLER_0_102_521
*1342 FILLER_0_102_527
*1343 FILLER_0_102_591
*1344 FILLER_0_102_597
*1345 FILLER_0_102_661
*1346 FILLER_0_102_667
*1347 FILLER_0_102_731
*1348 FILLER_0_102_737
*1349 FILLER_0_102_801
*1350 FILLER_0_102_807
*1351 FILLER_0_102_871
*1352 FILLER_0_102_877
*1353 FILLER_0_102_941
*1354 FILLER_0_102_947
*1355 FILLER_0_103_1046
*1356 FILLER_0_103_1052
*1357 FILLER_0_103_1116
*1358 FILLER_0_103_1122
*1359 FILLER_0_103_1186
*1360 FILLER_0_103_1192
*1361 FILLER_0_103_1256
*1362 FILLER_0_103_1262
*1363 FILLER_0_103_1326
*1364 FILLER_0_103_1332
*1365 FILLER_0_103_136
*1366 FILLER_0_103_1396
*1367 FILLER_0_103_1402
*1368 FILLER_0_103_142
*1369 FILLER_0_103_1466
*1370 FILLER_0_103_1472
*1371 FILLER_0_103_1536
*1372 FILLER_0_103_1542
*1373 FILLER_0_103_1606
*1374 FILLER_0_103_1612
*1375 FILLER_0_103_1676
*1376 FILLER_0_103_1682
*1377 FILLER_0_103_1746
*1378 FILLER_0_103_1752
*1379 FILLER_0_103_1816
*1380 FILLER_0_103_1822
*1381 FILLER_0_103_1886
*1382 FILLER_0_103_1892
*1383 FILLER_0_103_1956
*1384 FILLER_0_103_1962
*1385 FILLER_0_103_2
*1386 FILLER_0_103_2026
*1387 FILLER_0_103_2032
*1388 FILLER_0_103_206
*1389 FILLER_0_103_2096
*1390 FILLER_0_103_2102
*1391 FILLER_0_103_212
*1392 FILLER_0_103_2166
*1393 FILLER_0_103_2172
*1394 FILLER_0_103_2236
*1395 FILLER_0_103_2242
*1396 FILLER_0_103_2306
*1397 FILLER_0_103_2312
*1398 FILLER_0_103_2376
*1399 FILLER_0_103_2382
*1400 FILLER_0_103_2446
*1401 FILLER_0_103_2452
*1402 FILLER_0_103_2516
*1403 FILLER_0_103_2522
*1404 FILLER_0_103_2586
*1405 FILLER_0_103_2592
*1406 FILLER_0_103_2656
*1407 FILLER_0_103_2662
*1408 FILLER_0_103_2726
*1409 FILLER_0_103_2732
*1410 FILLER_0_103_276
*1411 FILLER_0_103_2796
*1412 FILLER_0_103_2802
*1413 FILLER_0_103_282
*1414 FILLER_0_103_2866
*1415 FILLER_0_103_2872
*1416 FILLER_0_103_2936
*1417 FILLER_0_103_2942
*1418 FILLER_0_103_3006
*1419 FILLER_0_103_3012
*1420 FILLER_0_103_3076
*1421 FILLER_0_103_3082
*1422 FILLER_0_103_3146
*1423 FILLER_0_103_3152
*1424 FILLER_0_103_3216
*1425 FILLER_0_103_3222
*1426 FILLER_0_103_3286
*1427 FILLER_0_103_3292
*1428 FILLER_0_103_3356
*1429 FILLER_0_103_3362
*1430 FILLER_0_103_3426
*1431 FILLER_0_103_3432
*1432 FILLER_0_103_346
*1433 FILLER_0_103_3496
*1434 FILLER_0_103_3502
*1435 FILLER_0_103_352
*1436 FILLER_0_103_3566
*1437 FILLER_0_103_3572
*1438 FILLER_0_103_3636
*1439 FILLER_0_103_3642
*1440 FILLER_0_103_3706
*1441 FILLER_0_103_3712
*1442 FILLER_0_103_3776
*1443 FILLER_0_103_3782
*1444 FILLER_0_103_3846
*1445 FILLER_0_103_3852
*1446 FILLER_0_103_3916
*1447 FILLER_0_103_3922
*1448 FILLER_0_103_3986
*1449 FILLER_0_103_3992
*1450 FILLER_0_103_4056
*1451 FILLER_0_103_4062
*1452 FILLER_0_103_4126
*1453 FILLER_0_103_4132
*1454 FILLER_0_103_416
*1455 FILLER_0_103_4196
*1456 FILLER_0_103_4202
*1457 FILLER_0_103_422
*1458 FILLER_0_103_4266
*1459 FILLER_0_103_4272
*1460 FILLER_0_103_4336
*1461 FILLER_0_103_4342
*1462 FILLER_0_103_4406
*1463 FILLER_0_103_4412
*1464 FILLER_0_103_4476
*1465 FILLER_0_103_4482
*1466 FILLER_0_103_4546
*1467 FILLER_0_103_4552
*1468 FILLER_0_103_4616
*1469 FILLER_0_103_4622
*1470 FILLER_0_103_4654
*1471 FILLER_0_103_4692
*1472 FILLER_0_103_4745
*1473 FILLER_0_103_4753
*1474 FILLER_0_103_4776
*1475 FILLER_0_103_4792
*1476 FILLER_0_103_4832
*1477 FILLER_0_103_4834
*1478 FILLER_0_103_486
*1479 FILLER_0_103_4869
*1480 FILLER_0_103_4873
*1481 FILLER_0_103_4887
*1482 FILLER_0_103_4895
*1483 FILLER_0_103_4899
*1484 FILLER_0_103_4908
*1485 FILLER_0_103_4912
*1486 FILLER_0_103_4914
*1487 FILLER_0_103_4919
*1488 FILLER_0_103_492
*1489 FILLER_0_103_4928
*1490 FILLER_0_103_4932
*1491 FILLER_0_103_4972
*1492 FILLER_0_103_556
*1493 FILLER_0_103_562
*1494 FILLER_0_103_626
*1495 FILLER_0_103_632
*1496 FILLER_0_103_66
*1497 FILLER_0_103_696
*1498 FILLER_0_103_702
*1499 FILLER_0_103_72
*1500 FILLER_0_103_766
*1501 FILLER_0_103_772
*1502 FILLER_0_103_836
*1503 FILLER_0_103_842
*1504 FILLER_0_103_906
*1505 FILLER_0_103_912
*1506 FILLER_0_103_976
*1507 FILLER_0_103_982
*1508 FILLER_0_104_101
*1509 FILLER_0_104_1011
*1510 FILLER_0_104_1017
*1511 FILLER_0_104_107
*1512 FILLER_0_104_1081
*1513 FILLER_0_104_1087
*1514 FILLER_0_104_1151
*1515 FILLER_0_104_1157
*1516 FILLER_0_104_1221
*1517 FILLER_0_104_1227
*1518 FILLER_0_104_1291
*1519 FILLER_0_104_1297
*1520 FILLER_0_104_1361
*1521 FILLER_0_104_1367
*1522 FILLER_0_104_1431
*1523 FILLER_0_104_1437
*1524 FILLER_0_104_1501
*1525 FILLER_0_104_1507
*1526 FILLER_0_104_1571
*1527 FILLER_0_104_1577