*SPEF "ieee 1481-1999"
*DESIGN "user_project_wrapper"
*DATE "11:11:11 Fri 11 11, 1111"
*VENDOR "OpenRCX"
*PROGRAM "Parallel Extraction"
*VERSION "1.0"
*DESIGN_FLOW "NAME_SCOPE LOCAL" "PIN_CAP NONE"
*DIVIDER /
*DELIMITER :
*BUS_DELIMITER []
*T_UNIT 1 NS
*C_UNIT 1 PF
*R_UNIT 1 OHM
*L_UNIT 1 HENRY

*NAME_MAP
*1 io_in[0]
*2 io_in[10]
*3 io_in[11]
*4 io_in[12]
*5 io_in[13]
*6 io_in[14]
*7 io_in[15]
*8 io_in[16]
*9 io_in[17]
*10 io_in[18]
*11 io_in[19]
*12 io_in[1]
*13 io_in[20]
*14 io_in[21]
*15 io_in[22]
*16 io_in[23]
*17 io_in[24]
*18 io_in[25]
*19 io_in[26]
*20 io_in[27]
*21 io_in[28]
*22 io_in[29]
*23 io_in[2]
*24 io_in[30]
*25 io_in[31]
*26 io_in[32]
*27 io_in[33]
*28 io_in[34]
*29 io_in[35]
*30 io_in[36]
*31 io_in[37]
*32 io_in[3]
*33 io_in[4]
*34 io_in[5]
*35 io_in[6]
*36 io_in[7]
*37 io_in[8]
*38 io_in[9]
*39 io_oeb[0]
*40 io_oeb[10]
*41 io_oeb[11]
*42 io_oeb[12]
*43 io_oeb[13]
*44 io_oeb[14]
*45 io_oeb[15]
*46 io_oeb[16]
*47 io_oeb[17]
*48 io_oeb[18]
*49 io_oeb[19]
*50 io_oeb[1]
*51 io_oeb[20]
*52 io_oeb[21]
*53 io_oeb[22]
*54 io_oeb[23]
*55 io_oeb[24]
*56 io_oeb[25]
*57 io_oeb[26]
*58 io_oeb[27]
*59 io_oeb[28]
*60 io_oeb[29]
*61 io_oeb[2]
*62 io_oeb[30]
*63 io_oeb[31]
*64 io_oeb[32]
*65 io_oeb[33]
*66 io_oeb[34]
*67 io_oeb[35]
*68 io_oeb[36]
*69 io_oeb[37]
*70 io_oeb[3]
*71 io_oeb[4]
*72 io_oeb[5]
*73 io_oeb[6]
*74 io_oeb[7]
*75 io_oeb[8]
*76 io_oeb[9]
*77 io_out[0]
*78 io_out[10]
*79 io_out[11]
*80 io_out[12]
*81 io_out[13]
*82 io_out[14]
*83 io_out[15]
*84 io_out[16]
*85 io_out[17]
*86 io_out[18]
*87 io_out[19]
*88 io_out[1]
*89 io_out[20]
*90 io_out[21]
*91 io_out[22]
*92 io_out[23]
*93 io_out[24]
*94 io_out[25]
*95 io_out[26]
*96 io_out[27]
*97 io_out[28]
*98 io_out[29]
*99 io_out[2]
*100 io_out[30]
*101 io_out[31]
*102 io_out[32]
*103 io_out[33]
*104 io_out[34]
*105 io_out[35]
*106 io_out[36]
*107 io_out[37]
*108 io_out[3]
*109 io_out[4]
*110 io_out[5]
*111 io_out[6]
*112 io_out[7]
*113 io_out[8]
*114 io_out[9]
*115 la_data_in[0]
*116 la_data_in[10]
*117 la_data_in[11]
*118 la_data_in[12]
*119 la_data_in[13]
*120 la_data_in[14]
*121 la_data_in[15]
*122 la_data_in[16]
*123 la_data_in[17]
*124 la_data_in[18]
*125 la_data_in[19]
*126 la_data_in[1]
*127 la_data_in[20]
*128 la_data_in[21]
*129 la_data_in[22]
*130 la_data_in[23]
*131 la_data_in[24]
*132 la_data_in[25]
*133 la_data_in[26]
*134 la_data_in[27]
*135 la_data_in[28]
*136 la_data_in[29]
*137 la_data_in[2]
*138 la_data_in[30]
*139 la_data_in[31]
*140 la_data_in[32]
*141 la_data_in[33]
*142 la_data_in[34]
*143 la_data_in[35]
*144 la_data_in[36]
*145 la_data_in[37]
*146 la_data_in[38]
*147 la_data_in[39]
*148 la_data_in[3]
*149 la_data_in[40]
*150 la_data_in[41]
*151 la_data_in[42]
*152 la_data_in[43]
*153 la_data_in[44]
*154 la_data_in[45]
*155 la_data_in[46]
*156 la_data_in[47]
*157 la_data_in[48]
*158 la_data_in[49]
*159 la_data_in[4]
*160 la_data_in[50]
*161 la_data_in[51]
*162 la_data_in[52]
*163 la_data_in[53]
*164 la_data_in[54]
*165 la_data_in[55]
*166 la_data_in[56]
*167 la_data_in[57]
*168 la_data_in[58]
*169 la_data_in[59]
*170 la_data_in[5]
*171 la_data_in[60]
*172 la_data_in[61]
*173 la_data_in[62]
*174 la_data_in[63]
*175 la_data_in[6]
*176 la_data_in[7]
*177 la_data_in[8]
*178 la_data_in[9]
*179 la_data_out[0]
*180 la_data_out[10]
*181 la_data_out[11]
*182 la_data_out[12]
*183 la_data_out[13]
*184 la_data_out[14]
*185 la_data_out[15]
*186 la_data_out[16]
*187 la_data_out[17]
*188 la_data_out[18]
*189 la_data_out[19]
*190 la_data_out[1]
*191 la_data_out[20]
*192 la_data_out[21]
*193 la_data_out[22]
*194 la_data_out[23]
*195 la_data_out[24]
*196 la_data_out[25]
*197 la_data_out[26]
*198 la_data_out[27]
*199 la_data_out[28]
*200 la_data_out[29]
*201 la_data_out[2]
*202 la_data_out[30]
*203 la_data_out[31]
*204 la_data_out[32]
*205 la_data_out[33]
*206 la_data_out[34]
*207 la_data_out[35]
*208 la_data_out[36]
*209 la_data_out[37]
*210 la_data_out[38]
*211 la_data_out[39]
*212 la_data_out[3]
*213 la_data_out[40]
*214 la_data_out[41]
*215 la_data_out[42]
*216 la_data_out[43]
*217 la_data_out[44]
*218 la_data_out[45]
*219 la_data_out[46]
*220 la_data_out[47]
*221 la_data_out[48]
*222 la_data_out[49]
*223 la_data_out[4]
*224 la_data_out[50]
*225 la_data_out[51]
*226 la_data_out[52]
*227 la_data_out[53]
*228 la_data_out[54]
*229 la_data_out[55]
*230 la_data_out[56]
*231 la_data_out[57]
*232 la_data_out[58]
*233 la_data_out[59]
*234 la_data_out[5]
*235 la_data_out[60]
*236 la_data_out[61]
*237 la_data_out[62]
*238 la_data_out[63]
*239 la_data_out[6]
*240 la_data_out[7]
*241 la_data_out[8]
*242 la_data_out[9]
*243 la_oenb[0]
*244 la_oenb[10]
*245 la_oenb[11]
*246 la_oenb[12]
*247 la_oenb[13]
*248 la_oenb[14]
*249 la_oenb[15]
*250 la_oenb[16]
*251 la_oenb[17]
*252 la_oenb[18]
*253 la_oenb[19]
*254 la_oenb[1]
*255 la_oenb[20]
*256 la_oenb[21]
*257 la_oenb[22]
*258 la_oenb[23]
*259 la_oenb[24]
*260 la_oenb[25]
*261 la_oenb[26]
*262 la_oenb[27]
*263 la_oenb[28]
*264 la_oenb[29]
*265 la_oenb[2]
*266 la_oenb[30]
*267 la_oenb[31]
*268 la_oenb[32]
*269 la_oenb[33]
*270 la_oenb[34]
*271 la_oenb[35]
*272 la_oenb[36]
*273 la_oenb[37]
*274 la_oenb[38]
*275 la_oenb[39]
*276 la_oenb[3]
*277 la_oenb[40]
*278 la_oenb[41]
*279 la_oenb[42]
*280 la_oenb[43]
*281 la_oenb[44]
*282 la_oenb[45]
*283 la_oenb[46]
*284 la_oenb[47]
*285 la_oenb[48]
*286 la_oenb[49]
*287 la_oenb[4]
*288 la_oenb[50]
*289 la_oenb[51]
*290 la_oenb[52]
*291 la_oenb[53]
*292 la_oenb[54]
*293 la_oenb[55]
*294 la_oenb[56]
*295 la_oenb[57]
*296 la_oenb[58]
*297 la_oenb[59]
*298 la_oenb[5]
*299 la_oenb[60]
*300 la_oenb[61]
*301 la_oenb[62]
*302 la_oenb[63]
*303 la_oenb[6]
*304 la_oenb[7]
*305 la_oenb[8]
*306 la_oenb[9]
*307 user_clock2
*308 user_irq[0]
*309 user_irq[1]
*310 user_irq[2]
*313 wb_clk_i
*314 wb_rst_i
*315 wbs_ack_o
*316 wbs_adr_i[0]
*317 wbs_adr_i[10]
*318 wbs_adr_i[11]
*319 wbs_adr_i[12]
*320 wbs_adr_i[13]
*321 wbs_adr_i[14]
*322 wbs_adr_i[15]
*323 wbs_adr_i[16]
*324 wbs_adr_i[17]
*325 wbs_adr_i[18]
*326 wbs_adr_i[19]
*327 wbs_adr_i[1]
*328 wbs_adr_i[20]
*329 wbs_adr_i[21]
*330 wbs_adr_i[22]
*331 wbs_adr_i[23]
*332 wbs_adr_i[24]
*333 wbs_adr_i[25]
*334 wbs_adr_i[26]
*335 wbs_adr_i[27]
*336 wbs_adr_i[28]
*337 wbs_adr_i[29]
*338 wbs_adr_i[2]
*339 wbs_adr_i[30]
*340 wbs_adr_i[31]
*341 wbs_adr_i[3]
*342 wbs_adr_i[4]
*343 wbs_adr_i[5]
*344 wbs_adr_i[6]
*345 wbs_adr_i[7]
*346 wbs_adr_i[8]
*347 wbs_adr_i[9]
*348 wbs_cyc_i
*349 wbs_dat_i[0]
*350 wbs_dat_i[10]
*351 wbs_dat_i[11]
*352 wbs_dat_i[12]
*353 wbs_dat_i[13]
*354 wbs_dat_i[14]
*355 wbs_dat_i[15]
*356 wbs_dat_i[16]
*357 wbs_dat_i[17]
*358 wbs_dat_i[18]
*359 wbs_dat_i[19]
*360 wbs_dat_i[1]
*361 wbs_dat_i[20]
*362 wbs_dat_i[21]
*363 wbs_dat_i[22]
*364 wbs_dat_i[23]
*365 wbs_dat_i[24]
*366 wbs_dat_i[25]
*367 wbs_dat_i[26]
*368 wbs_dat_i[27]
*369 wbs_dat_i[28]
*370 wbs_dat_i[29]
*371 wbs_dat_i[2]
*372 wbs_dat_i[30]
*373 wbs_dat_i[31]
*374 wbs_dat_i[3]
*375 wbs_dat_i[4]
*376 wbs_dat_i[5]
*377 wbs_dat_i[6]
*378 wbs_dat_i[7]
*379 wbs_dat_i[8]
*380 wbs_dat_i[9]
*381 wbs_dat_o[0]
*382 wbs_dat_o[10]
*383 wbs_dat_o[11]
*384 wbs_dat_o[12]
*385 wbs_dat_o[13]
*386 wbs_dat_o[14]
*387 wbs_dat_o[15]
*388 wbs_dat_o[16]
*389 wbs_dat_o[17]
*390 wbs_dat_o[18]
*391 wbs_dat_o[19]
*392 wbs_dat_o[1]
*393 wbs_dat_o[20]
*394 wbs_dat_o[21]
*395 wbs_dat_o[22]
*396 wbs_dat_o[23]
*397 wbs_dat_o[24]
*398 wbs_dat_o[25]
*399 wbs_dat_o[26]
*400 wbs_dat_o[27]
*401 wbs_dat_o[28]
*402 wbs_dat_o[29]
*403 wbs_dat_o[2]
*404 wbs_dat_o[30]
*405 wbs_dat_o[31]
*406 wbs_dat_o[3]
*407 wbs_dat_o[4]
*408 wbs_dat_o[5]
*409 wbs_dat_o[6]
*410 wbs_dat_o[7]
*411 wbs_dat_o[8]
*412 wbs_dat_o[9]
*413 wbs_sel_i[0]
*414 wbs_sel_i[1]
*415 wbs_sel_i[2]
*416 wbs_sel_i[3]
*417 wbs_stb_i
*418 wbs_we_i
*419 mprj

*PORTS
io_in[0] I
io_in[10] I
io_in[11] I
io_in[12] I
io_in[13] I
io_in[14] I
io_in[15] I
io_in[16] I
io_in[17] I
io_in[18] I
io_in[19] I
io_in[1] I
io_in[20] I
io_in[21] I
io_in[22] I
io_in[23] I
io_in[24] I
io_in[25] I
io_in[26] I
io_in[27] I
io_in[28] I
io_in[29] I
io_in[2] I
io_in[30] I
io_in[31] I
io_in[32] I
io_in[33] I
io_in[34] I
io_in[35] I
io_in[36] I
io_in[37] I
io_in[3] I
io_in[4] I
io_in[5] I
io_in[6] I
io_in[7] I
io_in[8] I
io_in[9] I
io_oeb[0] O
io_oeb[10] O
io_oeb[11] O
io_oeb[12] O
io_oeb[13] O
io_oeb[14] O
io_oeb[15] O
io_oeb[16] O
io_oeb[17] O
io_oeb[18] O
io_oeb[19] O
io_oeb[1] O
io_oeb[20] O
io_oeb[21] O
io_oeb[22] O
io_oeb[23] O
io_oeb[24] O
io_oeb[25] O
io_oeb[26] O
io_oeb[27] O
io_oeb[28] O
io_oeb[29] O
io_oeb[2] O
io_oeb[30] O
io_oeb[31] O
io_oeb[32] O
io_oeb[33] O
io_oeb[34] O
io_oeb[35] O
io_oeb[36] O
io_oeb[37] O
io_oeb[3] O
io_oeb[4] O
io_oeb[5] O
io_oeb[6] O
io_oeb[7] O
io_oeb[8] O
io_oeb[9] O
io_out[0] O
io_out[10] O
io_out[11] O
io_out[12] O
io_out[13] O
io_out[14] O
io_out[15] O
io_out[16] O
io_out[17] O
io_out[18] O
io_out[19] O
io_out[1] O
io_out[20] O
io_out[21] O
io_out[22] O
io_out[23] O
io_out[24] O
io_out[25] O
io_out[26] O
io_out[27] O
io_out[28] O
io_out[29] O
io_out[2] O
io_out[30] O
io_out[31] O
io_out[32] O
io_out[33] O
io_out[34] O
io_out[35] O
io_out[36] O
io_out[37] O
io_out[3] O
io_out[4] O
io_out[5] O
io_out[6] O
io_out[7] O
io_out[8] O
io_out[9] O
la_data_in[0] I
la_data_in[10] I
la_data_in[11] I
la_data_in[12] I
la_data_in[13] I
la_data_in[14] I
la_data_in[15] I
la_data_in[16] I
la_data_in[17] I
la_data_in[18] I
la_data_in[19] I
la_data_in[1] I
la_data_in[20] I
la_data_in[21] I
la_data_in[22] I
la_data_in[23] I
la_data_in[24] I
la_data_in[25] I
la_data_in[26] I
la_data_in[27] I
la_data_in[28] I
la_data_in[29] I
la_data_in[2] I
la_data_in[30] I
la_data_in[31] I
la_data_in[32] I
la_data_in[33] I
la_data_in[34] I
la_data_in[35] I
la_data_in[36] I
la_data_in[37] I
la_data_in[38] I
la_data_in[39] I
la_data_in[3] I
la_data_in[40] I
la_data_in[41] I
la_data_in[42] I
la_data_in[43] I
la_data_in[44] I
la_data_in[45] I
la_data_in[46] I
la_data_in[47] I
la_data_in[48] I
la_data_in[49] I
la_data_in[4] I
la_data_in[50] I
la_data_in[51] I
la_data_in[52] I
la_data_in[53] I
la_data_in[54] I
la_data_in[55] I
la_data_in[56] I
la_data_in[57] I
la_data_in[58] I
la_data_in[59] I
la_data_in[5] I
la_data_in[60] I
la_data_in[61] I
la_data_in[62] I
la_data_in[63] I
la_data_in[6] I
la_data_in[7] I
la_data_in[8] I
la_data_in[9] I
la_data_out[0] O
la_data_out[10] O
la_data_out[11] O
la_data_out[12] O
la_data_out[13] O
la_data_out[14] O
la_data_out[15] O
la_data_out[16] O
la_data_out[17] O
la_data_out[18] O
la_data_out[19] O
la_data_out[1] O
la_data_out[20] O
la_data_out[21] O
la_data_out[22] O
la_data_out[23] O
la_data_out[24] O
la_data_out[25] O
la_data_out[26] O
la_data_out[27] O
la_data_out[28] O
la_data_out[29] O
la_data_out[2] O
la_data_out[30] O
la_data_out[31] O
la_data_out[32] O
la_data_out[33] O
la_data_out[34] O
la_data_out[35] O
la_data_out[36] O
la_data_out[37] O
la_data_out[38] O
la_data_out[39] O
la_data_out[3] O
la_data_out[40] O
la_data_out[41] O
la_data_out[42] O
la_data_out[43] O
la_data_out[44] O
la_data_out[45] O
la_data_out[46] O
la_data_out[47] O
la_data_out[48] O
la_data_out[49] O
la_data_out[4] O
la_data_out[50] O
la_data_out[51] O
la_data_out[52] O
la_data_out[53] O
la_data_out[54] O
la_data_out[55] O
la_data_out[56] O
la_data_out[57] O
la_data_out[58] O
la_data_out[59] O
la_data_out[5] O
la_data_out[60] O
la_data_out[61] O
la_data_out[62] O
la_data_out[63] O
la_data_out[6] O
la_data_out[7] O
la_data_out[8] O
la_data_out[9] O
la_oenb[0] I
la_oenb[10] I
la_oenb[11] I
la_oenb[12] I
la_oenb[13] I
la_oenb[14] I
la_oenb[15] I
la_oenb[16] I
la_oenb[17] I
la_oenb[18] I
la_oenb[19] I
la_oenb[1] I
la_oenb[20] I
la_oenb[21] I
la_oenb[22] I
la_oenb[23] I
la_oenb[24] I
la_oenb[25] I
la_oenb[26] I
la_oenb[27] I
la_oenb[28] I
la_oenb[29] I
la_oenb[2] I
la_oenb[30] I
la_oenb[31] I
la_oenb[32] I
la_oenb[33] I
la_oenb[34] I
la_oenb[35] I
la_oenb[36] I
la_oenb[37] I
la_oenb[38] I
la_oenb[39] I
la_oenb[3] I
la_oenb[40] I
la_oenb[41] I
la_oenb[42] I
la_oenb[43] I
la_oenb[44] I
la_oenb[45] I
la_oenb[46] I
la_oenb[47] I
la_oenb[48] I
la_oenb[49] I
la_oenb[4] I
la_oenb[50] I
la_oenb[51] I
la_oenb[52] I
la_oenb[53] I
la_oenb[54] I
la_oenb[55] I
la_oenb[56] I
la_oenb[57] I
la_oenb[58] I
la_oenb[59] I
la_oenb[5] I
la_oenb[60] I
la_oenb[61] I
la_oenb[62] I
la_oenb[63] I
la_oenb[6] I
la_oenb[7] I
la_oenb[8] I
la_oenb[9] I
user_clock2 I
user_irq[0] O
user_irq[1] O
user_irq[2] O
wb_clk_i I
wb_rst_i I
wbs_ack_o O
wbs_adr_i[0] I
wbs_adr_i[10] I
wbs_adr_i[11] I
wbs_adr_i[12] I
wbs_adr_i[13] I
wbs_adr_i[14] I
wbs_adr_i[15] I
wbs_adr_i[16] I
wbs_adr_i[17] I
wbs_adr_i[18] I
wbs_adr_i[19] I
wbs_adr_i[1] I
wbs_adr_i[20] I
wbs_adr_i[21] I
wbs_adr_i[22] I
wbs_adr_i[23] I
wbs_adr_i[24] I
wbs_adr_i[25] I
wbs_adr_i[26] I
wbs_adr_i[27] I
wbs_adr_i[28] I
wbs_adr_i[29] I
wbs_adr_i[2] I
wbs_adr_i[30] I
wbs_adr_i[31] I
wbs_adr_i[3] I
wbs_adr_i[4] I
wbs_adr_i[5] I
wbs_adr_i[6] I
wbs_adr_i[7] I
wbs_adr_i[8] I
wbs_adr_i[9] I
wbs_cyc_i I
wbs_dat_i[0] I
wbs_dat_i[10] I
wbs_dat_i[11] I
wbs_dat_i[12] I
wbs_dat_i[13] I
wbs_dat_i[14] I
wbs_dat_i[15] I
wbs_dat_i[16] I
wbs_dat_i[17] I
wbs_dat_i[18] I
wbs_dat_i[19] I
wbs_dat_i[1] I
wbs_dat_i[20] I
wbs_dat_i[21] I
wbs_dat_i[22] I
wbs_dat_i[23] I
wbs_dat_i[24] I
wbs_dat_i[25] I
wbs_dat_i[26] I
wbs_dat_i[27] I
wbs_dat_i[28] I
wbs_dat_i[29] I
wbs_dat_i[2] I
wbs_dat_i[30] I
wbs_dat_i[31] I
wbs_dat_i[3] I
wbs_dat_i[4] I
wbs_dat_i[5] I
wbs_dat_i[6] I
wbs_dat_i[7] I
wbs_dat_i[8] I
wbs_dat_i[9] I
wbs_dat_o[0] O
wbs_dat_o[10] O
wbs_dat_o[11] O
wbs_dat_o[12] O
wbs_dat_o[13] O
wbs_dat_o[14] O
wbs_dat_o[15] O
wbs_dat_o[16] O
wbs_dat_o[17] O
wbs_dat_o[18] O
wbs_dat_o[19] O
wbs_dat_o[1] O
wbs_dat_o[20] O
wbs_dat_o[21] O
wbs_dat_o[22] O
wbs_dat_o[23] O
wbs_dat_o[24] O
wbs_dat_o[25] O
wbs_dat_o[26] O
wbs_dat_o[27] O
wbs_dat_o[28] O
wbs_dat_o[29] O
wbs_dat_o[2] O
wbs_dat_o[30] O
wbs_dat_o[31] O
wbs_dat_o[3] O
wbs_dat_o[4] O
wbs_dat_o[5] O
wbs_dat_o[6] O
wbs_dat_o[7] O
wbs_dat_o[8] O
wbs_dat_o[9] O
wbs_sel_i[0] I
wbs_sel_i[1] I
wbs_sel_i[2] I
wbs_sel_i[3] I
wbs_stb_i I
wbs_we_i I

*D_NET *19 0.45482
*CONN
*P io_in[26] I
*I *419:io_oeb[0] O *D user_proj_example
*I *419:io_in[0] I *D user_proj_example
*I *419:io_out[0] O *D user_proj_example
*CAP
1 io_in[26] 0.000717091
2 *419:io_oeb[0] 0.00352049
3 *419:io_in[0] 0.00320624
4 *419:io_out[0] 0.000510718
5 *19:37 0.0763276
6 *19:35 0.0756105
7 *19:33 0.110675
8 *19:31 0.110771
9 *19:7 0.00714152
10 *19:37 io_in[33] 0
11 *19:37 *24:37 0.0663402
*RES
1 *419:io_out[0] *19:7 8.186 
2 *19:7 *419:io_in[0] 28.022 
3 *19:7 *419:io_oeb[0] 28.934 
4 *419:io_oeb[0] *19:31 9.64329 
5 *19:31 *19:33 322.241 
6 *19:33 *19:35 4.5 
7 *19:35 *19:37 626.205 
8 *19:37 io_in[26] 9.706 
*END

*D_NET *20 0.460524
*CONN
*P io_in[27] I
*I *419:io_oeb[1] O *D user_proj_example
*I *419:io_in[1] I *D user_proj_example
*I *419:io_out[1] O *D user_proj_example
*CAP
1 io_in[27] 0.134227
2 *419:io_oeb[1] 0.000613904
3 *419:io_in[1] 0.0032939
4 *419:io_out[1] 0.000510718
5 *20:35 0.134227
6 *20:33 0.0455612
7 *20:23 0.0491343
8 *20:7 0.00676377
9 *20:33 *419:io_in[2] 0.00208792
10 *20:33 *419:io_in[3] 0.00288504
11 *20:33 *419:io_oeb[6] 0.00823186
12 *20:33 *419:io_oeb[7] 0.00411949
13 *20:33 *21:19 0.00213955
14 *20:33 *21:29 0.00826063
15 *20:33 *22:19 0.00296729
16 *20:33 *22:29 0.0127713
17 *20:33 *26:9 0.00823186
18 *20:33 *26:13 0.0143111
19 *20:33 *27:9 0.00419236
20 *20:33 *27:11 0.0159949
*RES
1 *419:io_out[1] *20:7 8.186 
2 *20:7 *419:io_in[1] 28.022 
3 *20:7 *20:23 20.748 
4 *20:23 *419:io_oeb[1] 8.946 
5 *20:23 *20:33 510.036 
6 *20:33 *20:35 4.5 
7 *20:35 io_in[27] 780.102 
*END

*D_NET *21 0.504518
*CONN
*P io_in[28] I
*I *419:io_oeb[2] O *D user_proj_example
*I *419:io_in[2] I *D user_proj_example
*I *419:io_out[2] O *D user_proj_example
*CAP
1 io_in[28] 0.134124
2 *419:io_oeb[2] 0.000531355
3 *419:io_in[2] 0.00245654
4 *419:io_out[2] 0.000531355
5 *21:31 0.134124
6 *21:29 0.0242002
7 *21:19 0.0265701
8 *21:7 0.00482649
9 *21:29 *419:io_in[3] 0.00823186
10 *21:29 *419:io_in[4] 0.00828538
11 *21:29 *419:io_in[5] 0.00823676
12 *21:29 *419:io_oeb[4] 0.00821848
13 *21:29 *419:io_oeb[5] 0.00828019
14 *21:29 *22:19 0.00826858
15 *21:29 *22:29 0.115145
16 *20:33 *419:io_in[2] 0.00208792
17 *20:33 *21:19 0.00213955
18 *20:33 *21:29 0.00826063
*RES
1 *419:io_out[2] *21:7 8.338 
2 *21:7 *419:io_in[2] 28.174 
3 *21:7 *21:19 19.836 
4 *21:19 *419:io_oeb[2] 8.338 
5 *21:19 *21:29 393.3 
6 *21:29 *21:31 4.5 
7 *21:31 io_in[28] 779.494 
*END

*D_NET *22 0.456082
*CONN
*P io_in[29] I
*I *419:io_oeb[3] O *D user_proj_example
*I *419:io_in[3] I *D user_proj_example
*I *419:io_out[3] O *D user_proj_example
*CAP
1 io_in[29] 0.109285
2 *419:io_oeb[3] 0.000690587
3 *419:io_in[3] 0.000878906
4 *419:io_out[3] 0.000565675
5 *22:31 0.109285
6 *22:29 0.00170825
7 *22:19 0.00263164
8 *22:7 0.00167738
9 *22:29 *419:io_oeb[7] 0.00820665
10 *22:29 *27:9 0.00827161
11 *22:29 *27:11 0.0626128
12 *20:33 *419:io_in[3] 0.00288504
13 *20:33 *22:19 0.00296729
14 *20:33 *22:29 0.0127713
15 *21:29 *419:io_in[3] 0.00823186
16 *21:29 *22:19 0.00826858
17 *21:29 *22:29 0.115145
*RES
1 *419:io_out[3] *22:7 8.49 
2 *22:7 *419:io_in[3] 28.326 
3 *22:7 *22:19 19.836 
4 *22:19 *419:io_oeb[3] 8.49 
5 *22:19 *22:29 276.564 
6 *22:29 *22:31 4.5 
7 *22:31 io_in[29] 779.646 
*END

*D_NET *24 0.318567
*CONN
*P io_in[30] I
*I *419:io_oeb[4] O *D user_proj_example
*I *419:io_in[4] I *D user_proj_example
*I *419:io_out[4] O *D user_proj_example
*CAP
1 io_in[30] 0.000751411
2 *419:io_oeb[4] 0.00218523
3 *419:io_in[4] 0.00188868
4 *419:io_out[4] 0.000510718
5 *24:37 0.00905907
6 *24:35 0.00830766
7 *24:33 0.0953285
8 *24:31 0.0954352
9 *24:7 0.004478
10 *24:37 io_in[32] 1.78462e-06
11 *24:37 *25:37 0.017777
12 *19:37 *24:37 0.0663402
13 *21:29 *419:io_in[4] 0.00828538
14 *21:29 *419:io_oeb[4] 0.00821848
*RES
1 *419:io_out[4] *24:7 8.186 
2 *24:7 *419:io_in[4] 28.022 
3 *24:7 *419:io_oeb[4] 28.934 
4 *419:io_oeb[4] *24:31 9.72471 
5 *24:31 *24:33 322.177 
6 *24:33 *24:35 4.5 
7 *24:35 *24:37 159.179 
8 *24:37 io_in[30] 9.858 
*END

*D_NET *25 0.241784
*CONN
*P io_in[31] I
*I *419:io_oeb[5] O *D user_proj_example
*I *419:io_in[5] I *D user_proj_example
*I *419:io_out[5] O *D user_proj_example
*CAP
1 io_in[31] 0.000785731
2 *419:io_oeb[5] 0.00210895
3 *419:io_in[5] 0.00193154
4 *419:io_out[5] 0.000630531
5 *25:37 0.00376538
6 *25:33 0.0982882
7 *25:31 0.0953938
8 *25:7 0.00458577
9 *21:29 *419:io_in[5] 0.00823676
10 *21:29 *419:io_oeb[5] 0.00828019
11 *24:37 *25:37 0.017777
*RES
1 *419:io_out[5] *25:7 8.186 
2 *25:7 *419:io_in[5] 28.022 
3 *25:7 *419:io_oeb[5] 28.934 
4 *419:io_oeb[5] *25:31 9.56186 
5 *25:31 *25:33 322.114 
6 *25:33 *25:37 47.1061 
7 *25:37 io_in[31] 10.01 
*END

*D_NET *26 0.259384
*CONN
*P io_in[32] I
*I *419:io_oeb[6] O *D user_proj_example
*I *419:io_in[6] I *D user_proj_example
*I *419:io_out[6] O *D user_proj_example
*CAP
1 io_in[32] 0.000912076
2 *419:io_oeb[6] 0.000700558
3 *419:io_in[6] 0.000634315
4 *419:io_out[6] 0.000634315
5 *26:15 0.0968373
6 *26:13 0.0959958
7 *26:9 0.000771071
8 *26:7 0.00140112
9 *419:io_oeb[6] *27:11 0.00820471
10 *26:9 *27:11 0.00820471
11 *26:13 *27:11 0.0143111
12 *20:33 *419:io_oeb[6] 0.00823186
13 *20:33 *26:9 0.00823186
14 *20:33 *26:13 0.0143111
15 *24:37 io_in[32] 1.78462e-06
*RES
1 *419:io_out[6] *26:7 8.794 
2 *26:7 *26:9 19.836 
3 *26:9 *26:13 38.7516 
4 *26:13 *26:15 323.959 
5 *26:15 io_in[32] 15.3704 
6 *26:9 *419:io_in[6] 8.794 
7 *26:7 *419:io_oeb[6] 28.63 
*END

*D_NET *27 0.333316
*CONN
*P io_in[33] I
*I *419:io_oeb[7] O *D user_proj_example
*I *419:io_in[7] I *D user_proj_example
*I *419:io_out[7] O *D user_proj_example
*CAP
1 io_in[33] 0.000936294
2 *419:io_oeb[7] 0.000857415
3 *419:io_in[7] 0.000599995
4 *419:io_out[7] 0.000599995
5 *27:15 0.0968239
6 *27:13 0.0958876
7 *27:11 0.000648266
8 *27:9 0.00131756
9 *27:7 0.00152671
10 *419:io_oeb[6] *27:11 0.00820471
11 *19:37 io_in[33] 0
12 *20:33 *419:io_oeb[7] 0.00411949
13 *20:33 *27:9 0.00419236
14 *20:33 *27:11 0.0159949
15 *22:29 *419:io_oeb[7] 0.00820665
16 *22:29 *27:9 0.00827161
17 *22:29 *27:11 0.0626128
18 *26:9 *27:11 0.00820471
19 *26:13 *27:11 0.0143111
*RES
1 *419:io_out[7] *27:7 8.642 
2 *27:7 *27:9 19.836 
3 *27:9 *27:11 150.45 
4 *27:11 *27:13 4.5 
5 *27:13 *27:15 323.895 
6 *27:15 io_in[33] 15.6039 
7 *27:9 *419:io_in[7] 8.642 
8 *27:7 *419:io_oeb[7] 28.478 
*END

*D_NET *28 0.1055
*CONN
*P io_in[34] I
*I *419:io_in[8] I *D user_proj_example
*I *419:io_oeb[8] O *D user_proj_example
*I *419:io_out[8] O *D user_proj_example
*CAP
1 io_in[34] 0.00170025
2 *419:io_in[8] 0.00679003
3 *419:io_oeb[8] 0.000382591
4 *419:io_out[8] 0.000386881
5 *28:19 0.0382233
6 *28:17 0.0370999
7 *28:9 0.00734957
8 *28:7 0.013567
*RES
1 *419:io_out[8] *28:7 7.274 
2 *28:7 *28:9 39.9 
3 *28:9 *28:17 12.04 
4 *28:17 *28:19 158.308 
5 *28:19 io_in[34] 16.242 
6 *28:9 *419:io_oeb[8] 7.274 
7 *28:7 *419:io_in[8] 47.174 
*END

*D_NET *29 0.0771938
*CONN
*P io_in[35] I
*I *419:io_in[9] I *D user_proj_example
*I *419:io_oeb[9] O *D user_proj_example
*I *419:io_out[9] O *D user_proj_example
*CAP
1 io_in[35] 0.00199545
2 *419:io_in[9] 0.00680305
3 *419:io_oeb[9] 0.000386881
4 *419:io_out[9] 0.000386881
5 *29:11 0.0124931
6 *29:9 0.0173007
7 *29:7 0.0136061
8 *29:11 *419:io_in[10] 0.0166281
9 *29:11 *30:9 0.00759349
*RES
1 *419:io_out[9] *29:7 7.274 
2 *29:7 *29:9 39.9 
3 *29:9 *29:11 97.812 
4 *29:11 io_in[35] 17.61 
5 *29:9 *419:io_oeb[9] 7.274 
6 *29:7 *419:io_in[9] 47.174 
*END

*D_NET *30 0.0686781
*CONN
*P io_in[36] I
*I *419:io_in[10] I *D user_proj_example
*I *419:io_oeb[10] O *D user_proj_example
*I *419:io_out[10] O *D user_proj_example
*CAP
1 io_in[36] 0.00196113
2 *419:io_in[10] 0.00562985
3 *419:io_oeb[10] 0.000407519
4 *419:io_out[10] 0.000421201
5 *30:13 0.00908103
6 *30:9 0.0142161
7 *30:7 0.0127397
8 *29:11 *419:io_in[10] 0.0166281
9 *29:11 *30:9 0.00759349
*RES
1 *419:io_out[10] *30:7 7.426 
2 *30:7 *30:9 39.9 
3 *30:9 *30:13 40.296 
4 *30:13 io_in[36] 12.958 
5 *30:9 *419:io_oeb[10] 7.426 
6 *30:7 *419:io_in[10] 47.326 
*END

*D_NET *31 0.0352137
*CONN
*P io_in[37] I
*I *419:io_in[11] I *D user_proj_example
*I *419:io_oeb[11] O *D user_proj_example
*I *419:io_out[11] O *D user_proj_example
*CAP
1 io_in[37] 0.00194746
2 *419:io_in[11] 0.00683802
3 *419:io_oeb[11] 0.00558462
4 *419:io_out[11] 0.00040229
5 *31:13 0.0103665
6 *31:9 0.0100748
*RES
1 *419:io_out[11] *31:9 7.426 
2 *31:9 *31:13 14.212 
3 *31:13 *419:io_oeb[11] 33.494 
4 *31:13 io_in[37] 17.458 
5 *31:9 *419:io_in[11] 47.098 
*END

*D_NET *313 0.106867
*CONN
*P wb_clk_i I
*I *419:wb_clk_i I *D user_proj_example
*CAP
1 wb_clk_i 0.000140838
2 *419:wb_clk_i 0.000618356
3 *313:13 0.0142331
4 *313:11 0.0137556
5 *313:13 *314:13 0.0781186
*RES
1 wb_clk_i *313:11 5.602 
2 *313:11 *313:13 190.228 
3 *313:13 *419:wb_clk_i 8.642 
*END

*D_NET *314 0.212616
*CONN
*P wb_rst_i I
*I *419:wb_rst_i I *D user_proj_example
*CAP
1 wb_rst_i 0.000118969
2 *419:wb_rst_i 0.000583665
3 *314:13 0.0671295
4 *314:11 0.0666649
5 *313:13 *314:13 0.0781186
*RES
1 wb_rst_i *314:11 5.45 
2 *314:11 *314:13 568.252 
3 *314:13 *419:wb_rst_i 8.49 
*END
