*SPEF "ieee 1481-1999"
*DESIGN "user_project_wrapper"
*DATE "11:11:11 Fri 11 11, 1111"
*VENDOR "OpenRCX"
*PROGRAM "Parallel Extraction"
*VERSION "1.0"
*DESIGN_FLOW "NAME_SCOPE LOCAL" "PIN_CAP NONE"
*DIVIDER /
*DELIMITER :
*BUS_DELIMITER []
*T_UNIT 1 NS
*C_UNIT 1 PF
*R_UNIT 1 OHM
*L_UNIT 1 HENRY

*NAME_MAP
*1 io_in[0]
*2 io_in[10]
*3 io_in[11]
*4 io_in[12]
*5 io_in[13]
*6 io_in[14]
*7 io_in[15]
*8 io_in[16]
*9 io_in[17]
*10 io_in[18]
*11 io_in[19]
*12 io_in[1]
*13 io_in[20]
*14 io_in[21]
*15 io_in[22]
*16 io_in[23]
*17 io_in[24]
*18 io_in[25]
*19 io_in[26]
*20 io_in[27]
*21 io_in[28]
*22 io_in[29]
*23 io_in[2]
*24 io_in[30]
*25 io_in[31]
*26 io_in[32]
*27 io_in[33]
*28 io_in[34]
*29 io_in[35]
*30 io_in[36]
*31 io_in[37]
*32 io_in[3]
*33 io_in[4]
*34 io_in[5]
*35 io_in[6]
*36 io_in[7]
*37 io_in[8]
*38 io_in[9]
*39 io_oeb[0]
*40 io_oeb[10]
*41 io_oeb[11]
*42 io_oeb[12]
*43 io_oeb[13]
*44 io_oeb[14]
*45 io_oeb[15]
*46 io_oeb[16]
*47 io_oeb[17]
*48 io_oeb[18]
*49 io_oeb[19]
*50 io_oeb[1]
*51 io_oeb[20]
*52 io_oeb[21]
*53 io_oeb[22]
*54 io_oeb[23]
*55 io_oeb[24]
*56 io_oeb[25]
*57 io_oeb[26]
*58 io_oeb[27]
*59 io_oeb[28]
*60 io_oeb[29]
*61 io_oeb[2]
*62 io_oeb[30]
*63 io_oeb[31]
*64 io_oeb[32]
*65 io_oeb[33]
*66 io_oeb[34]
*67 io_oeb[35]
*68 io_oeb[36]
*69 io_oeb[37]
*70 io_oeb[3]
*71 io_oeb[4]
*72 io_oeb[5]
*73 io_oeb[6]
*74 io_oeb[7]
*75 io_oeb[8]
*76 io_oeb[9]
*77 io_out[0]
*78 io_out[10]
*79 io_out[11]
*80 io_out[12]
*81 io_out[13]
*82 io_out[14]
*83 io_out[15]
*84 io_out[16]
*85 io_out[17]
*86 io_out[18]
*87 io_out[19]
*88 io_out[1]
*89 io_out[20]
*90 io_out[21]
*91 io_out[22]
*92 io_out[23]
*93 io_out[24]
*94 io_out[25]
*95 io_out[26]
*96 io_out[27]
*97 io_out[28]
*98 io_out[29]
*99 io_out[2]
*100 io_out[30]
*101 io_out[31]
*102 io_out[32]
*103 io_out[33]
*104 io_out[34]
*105 io_out[35]
*106 io_out[36]
*107 io_out[37]
*108 io_out[3]
*109 io_out[4]
*110 io_out[5]
*111 io_out[6]
*112 io_out[7]
*113 io_out[8]
*114 io_out[9]
*115 la_data_in[0]
*116 la_data_in[10]
*117 la_data_in[11]
*118 la_data_in[12]
*119 la_data_in[13]
*120 la_data_in[14]
*121 la_data_in[15]
*122 la_data_in[16]
*123 la_data_in[17]
*124 la_data_in[18]
*125 la_data_in[19]
*126 la_data_in[1]
*127 la_data_in[20]
*128 la_data_in[21]
*129 la_data_in[22]
*130 la_data_in[23]
*131 la_data_in[24]
*132 la_data_in[25]
*133 la_data_in[26]
*134 la_data_in[27]
*135 la_data_in[28]
*136 la_data_in[29]
*137 la_data_in[2]
*138 la_data_in[30]
*139 la_data_in[31]
*140 la_data_in[32]
*141 la_data_in[33]
*142 la_data_in[34]
*143 la_data_in[35]
*144 la_data_in[36]
*145 la_data_in[37]
*146 la_data_in[38]
*147 la_data_in[39]
*148 la_data_in[3]
*149 la_data_in[40]
*150 la_data_in[41]
*151 la_data_in[42]
*152 la_data_in[43]
*153 la_data_in[44]
*154 la_data_in[45]
*155 la_data_in[46]
*156 la_data_in[47]
*157 la_data_in[48]
*158 la_data_in[49]
*159 la_data_in[4]
*160 la_data_in[50]
*161 la_data_in[51]
*162 la_data_in[52]
*163 la_data_in[53]
*164 la_data_in[54]
*165 la_data_in[55]
*166 la_data_in[56]
*167 la_data_in[57]
*168 la_data_in[58]
*169 la_data_in[59]
*170 la_data_in[5]
*171 la_data_in[60]
*172 la_data_in[61]
*173 la_data_in[62]
*174 la_data_in[63]
*175 la_data_in[6]
*176 la_data_in[7]
*177 la_data_in[8]
*178 la_data_in[9]
*179 la_data_out[0]
*180 la_data_out[10]
*181 la_data_out[11]
*182 la_data_out[12]
*183 la_data_out[13]
*184 la_data_out[14]
*185 la_data_out[15]
*186 la_data_out[16]
*187 la_data_out[17]
*188 la_data_out[18]
*189 la_data_out[19]
*190 la_data_out[1]
*191 la_data_out[20]
*192 la_data_out[21]
*193 la_data_out[22]
*194 la_data_out[23]
*195 la_data_out[24]
*196 la_data_out[25]
*197 la_data_out[26]
*198 la_data_out[27]
*199 la_data_out[28]
*200 la_data_out[29]
*201 la_data_out[2]
*202 la_data_out[30]
*203 la_data_out[31]
*204 la_data_out[32]
*205 la_data_out[33]
*206 la_data_out[34]
*207 la_data_out[35]
*208 la_data_out[36]
*209 la_data_out[37]
*210 la_data_out[38]
*211 la_data_out[39]
*212 la_data_out[3]
*213 la_data_out[40]
*214 la_data_out[41]
*215 la_data_out[42]
*216 la_data_out[43]
*217 la_data_out[44]
*218 la_data_out[45]
*219 la_data_out[46]
*220 la_data_out[47]
*221 la_data_out[48]
*222 la_data_out[49]
*223 la_data_out[4]
*224 la_data_out[50]
*225 la_data_out[51]
*226 la_data_out[52]
*227 la_data_out[53]
*228 la_data_out[54]
*229 la_data_out[55]
*230 la_data_out[56]
*231 la_data_out[57]
*232 la_data_out[58]
*233 la_data_out[59]
*234 la_data_out[5]
*235 la_data_out[60]
*236 la_data_out[61]
*237 la_data_out[62]
*238 la_data_out[63]
*239 la_data_out[6]
*240 la_data_out[7]
*241 la_data_out[8]
*242 la_data_out[9]
*243 la_oenb[0]
*244 la_oenb[10]
*245 la_oenb[11]
*246 la_oenb[12]
*247 la_oenb[13]
*248 la_oenb[14]
*249 la_oenb[15]
*250 la_oenb[16]
*251 la_oenb[17]
*252 la_oenb[18]
*253 la_oenb[19]
*254 la_oenb[1]
*255 la_oenb[20]
*256 la_oenb[21]
*257 la_oenb[22]
*258 la_oenb[23]
*259 la_oenb[24]
*260 la_oenb[25]
*261 la_oenb[26]
*262 la_oenb[27]
*263 la_oenb[28]
*264 la_oenb[29]
*265 la_oenb[2]
*266 la_oenb[30]
*267 la_oenb[31]
*268 la_oenb[32]
*269 la_oenb[33]
*270 la_oenb[34]
*271 la_oenb[35]
*272 la_oenb[36]
*273 la_oenb[37]
*274 la_oenb[38]
*275 la_oenb[39]
*276 la_oenb[3]
*277 la_oenb[40]
*278 la_oenb[41]
*279 la_oenb[42]
*280 la_oenb[43]
*281 la_oenb[44]
*282 la_oenb[45]
*283 la_oenb[46]
*284 la_oenb[47]
*285 la_oenb[48]
*286 la_oenb[49]
*287 la_oenb[4]
*288 la_oenb[50]
*289 la_oenb[51]
*290 la_oenb[52]
*291 la_oenb[53]
*292 la_oenb[54]
*293 la_oenb[55]
*294 la_oenb[56]
*295 la_oenb[57]
*296 la_oenb[58]
*297 la_oenb[59]
*298 la_oenb[5]
*299 la_oenb[60]
*300 la_oenb[61]
*301 la_oenb[62]
*302 la_oenb[63]
*303 la_oenb[6]
*304 la_oenb[7]
*305 la_oenb[8]
*306 la_oenb[9]
*307 user_clock2
*308 user_irq[0]
*309 user_irq[1]
*310 user_irq[2]
*313 wb_clk_i
*314 wb_rst_i
*315 wbs_ack_o
*316 wbs_adr_i[0]
*317 wbs_adr_i[10]
*318 wbs_adr_i[11]
*319 wbs_adr_i[12]
*320 wbs_adr_i[13]
*321 wbs_adr_i[14]
*322 wbs_adr_i[15]
*323 wbs_adr_i[16]
*324 wbs_adr_i[17]
*325 wbs_adr_i[18]
*326 wbs_adr_i[19]
*327 wbs_adr_i[1]
*328 wbs_adr_i[20]
*329 wbs_adr_i[21]
*330 wbs_adr_i[22]
*331 wbs_adr_i[23]
*332 wbs_adr_i[24]
*333 wbs_adr_i[25]
*334 wbs_adr_i[26]
*335 wbs_adr_i[27]
*336 wbs_adr_i[28]
*337 wbs_adr_i[29]
*338 wbs_adr_i[2]
*339 wbs_adr_i[30]
*340 wbs_adr_i[31]
*341 wbs_adr_i[3]
*342 wbs_adr_i[4]
*343 wbs_adr_i[5]
*344 wbs_adr_i[6]
*345 wbs_adr_i[7]
*346 wbs_adr_i[8]
*347 wbs_adr_i[9]
*348 wbs_cyc_i
*349 wbs_dat_i[0]
*350 wbs_dat_i[10]
*351 wbs_dat_i[11]
*352 wbs_dat_i[12]
*353 wbs_dat_i[13]
*354 wbs_dat_i[14]
*355 wbs_dat_i[15]
*356 wbs_dat_i[16]
*357 wbs_dat_i[17]
*358 wbs_dat_i[18]
*359 wbs_dat_i[19]
*360 wbs_dat_i[1]
*361 wbs_dat_i[20]
*362 wbs_dat_i[21]
*363 wbs_dat_i[22]
*364 wbs_dat_i[23]
*365 wbs_dat_i[24]
*366 wbs_dat_i[25]
*367 wbs_dat_i[26]
*368 wbs_dat_i[27]
*369 wbs_dat_i[28]
*370 wbs_dat_i[29]
*371 wbs_dat_i[2]
*372 wbs_dat_i[30]
*373 wbs_dat_i[31]
*374 wbs_dat_i[3]
*375 wbs_dat_i[4]
*376 wbs_dat_i[5]
*377 wbs_dat_i[6]
*378 wbs_dat_i[7]
*379 wbs_dat_i[8]
*380 wbs_dat_i[9]
*381 wbs_dat_o[0]
*382 wbs_dat_o[10]
*383 wbs_dat_o[11]
*384 wbs_dat_o[12]
*385 wbs_dat_o[13]
*386 wbs_dat_o[14]
*387 wbs_dat_o[15]
*388 wbs_dat_o[16]
*389 wbs_dat_o[17]
*390 wbs_dat_o[18]
*391 wbs_dat_o[19]
*392 wbs_dat_o[1]
*393 wbs_dat_o[20]
*394 wbs_dat_o[21]
*395 wbs_dat_o[22]
*396 wbs_dat_o[23]
*397 wbs_dat_o[24]
*398 wbs_dat_o[25]
*399 wbs_dat_o[26]
*400 wbs_dat_o[27]
*401 wbs_dat_o[28]
*402 wbs_dat_o[29]
*403 wbs_dat_o[2]
*404 wbs_dat_o[30]
*405 wbs_dat_o[31]
*406 wbs_dat_o[3]
*407 wbs_dat_o[4]
*408 wbs_dat_o[5]
*409 wbs_dat_o[6]
*410 wbs_dat_o[7]
*411 wbs_dat_o[8]
*412 wbs_dat_o[9]
*413 wbs_sel_i[0]
*414 wbs_sel_i[1]
*415 wbs_sel_i[2]
*416 wbs_sel_i[3]
*417 wbs_stb_i
*418 wbs_we_i
*419 mprj

*PORTS
io_in[0] I
io_in[10] I
io_in[11] I
io_in[12] I
io_in[13] I
io_in[14] I
io_in[15] I
io_in[16] I
io_in[17] I
io_in[18] I
io_in[19] I
io_in[1] I
io_in[20] I
io_in[21] I
io_in[22] I
io_in[23] I
io_in[24] I
io_in[25] I
io_in[26] I
io_in[27] I
io_in[28] I
io_in[29] I
io_in[2] I
io_in[30] I
io_in[31] I
io_in[32] I
io_in[33] I
io_in[34] I
io_in[35] I
io_in[36] I
io_in[37] I
io_in[3] I
io_in[4] I
io_in[5] I
io_in[6] I
io_in[7] I
io_in[8] I
io_in[9] I
io_oeb[0] O
io_oeb[10] O
io_oeb[11] O
io_oeb[12] O
io_oeb[13] O
io_oeb[14] O
io_oeb[15] O
io_oeb[16] O
io_oeb[17] O
io_oeb[18] O
io_oeb[19] O
io_oeb[1] O
io_oeb[20] O
io_oeb[21] O
io_oeb[22] O
io_oeb[23] O
io_oeb[24] O
io_oeb[25] O
io_oeb[26] O
io_oeb[27] O
io_oeb[28] O
io_oeb[29] O
io_oeb[2] O
io_oeb[30] O
io_oeb[31] O
io_oeb[32] O
io_oeb[33] O
io_oeb[34] O
io_oeb[35] O
io_oeb[36] O
io_oeb[37] O
io_oeb[3] O
io_oeb[4] O
io_oeb[5] O
io_oeb[6] O
io_oeb[7] O
io_oeb[8] O
io_oeb[9] O
io_out[0] O
io_out[10] O
io_out[11] O
io_out[12] O
io_out[13] O
io_out[14] O
io_out[15] O
io_out[16] O
io_out[17] O
io_out[18] O
io_out[19] O
io_out[1] O
io_out[20] O
io_out[21] O
io_out[22] O
io_out[23] O
io_out[24] O
io_out[25] O
io_out[26] O
io_out[27] O
io_out[28] O
io_out[29] O
io_out[2] O
io_out[30] O
io_out[31] O
io_out[32] O
io_out[33] O
io_out[34] O
io_out[35] O
io_out[36] O
io_out[37] O
io_out[3] O
io_out[4] O
io_out[5] O
io_out[6] O
io_out[7] O
io_out[8] O
io_out[9] O
la_data_in[0] I
la_data_in[10] I
la_data_in[11] I
la_data_in[12] I
la_data_in[13] I
la_data_in[14] I
la_data_in[15] I
la_data_in[16] I
la_data_in[17] I
la_data_in[18] I
la_data_in[19] I
la_data_in[1] I
la_data_in[20] I
la_data_in[21] I
la_data_in[22] I
la_data_in[23] I
la_data_in[24] I
la_data_in[25] I
la_data_in[26] I
la_data_in[27] I
la_data_in[28] I
la_data_in[29] I
la_data_in[2] I
la_data_in[30] I
la_data_in[31] I
la_data_in[32] I
la_data_in[33] I
la_data_in[34] I
la_data_in[35] I
la_data_in[36] I
la_data_in[37] I
la_data_in[38] I
la_data_in[39] I
la_data_in[3] I
la_data_in[40] I
la_data_in[41] I
la_data_in[42] I
la_data_in[43] I
la_data_in[44] I
la_data_in[45] I
la_data_in[46] I
la_data_in[47] I
la_data_in[48] I
la_data_in[49] I
la_data_in[4] I
la_data_in[50] I
la_data_in[51] I
la_data_in[52] I
la_data_in[53] I
la_data_in[54] I
la_data_in[55] I
la_data_in[56] I
la_data_in[57] I
la_data_in[58] I
la_data_in[59] I
la_data_in[5] I
la_data_in[60] I
la_data_in[61] I
la_data_in[62] I
la_data_in[63] I
la_data_in[6] I
la_data_in[7] I
la_data_in[8] I
la_data_in[9] I
la_data_out[0] O
la_data_out[10] O
la_data_out[11] O
la_data_out[12] O
la_data_out[13] O
la_data_out[14] O
la_data_out[15] O
la_data_out[16] O
la_data_out[17] O
la_data_out[18] O
la_data_out[19] O
la_data_out[1] O
la_data_out[20] O
la_data_out[21] O
la_data_out[22] O
la_data_out[23] O
la_data_out[24] O
la_data_out[25] O
la_data_out[26] O
la_data_out[27] O
la_data_out[28] O
la_data_out[29] O
la_data_out[2] O
la_data_out[30] O
la_data_out[31] O
la_data_out[32] O
la_data_out[33] O
la_data_out[34] O
la_data_out[35] O
la_data_out[36] O
la_data_out[37] O
la_data_out[38] O
la_data_out[39] O
la_data_out[3] O
la_data_out[40] O
la_data_out[41] O
la_data_out[42] O
la_data_out[43] O
la_data_out[44] O
la_data_out[45] O
la_data_out[46] O
la_data_out[47] O
la_data_out[48] O
la_data_out[49] O
la_data_out[4] O
la_data_out[50] O
la_data_out[51] O
la_data_out[52] O
la_data_out[53] O
la_data_out[54] O
la_data_out[55] O
la_data_out[56] O
la_data_out[57] O
la_data_out[58] O
la_data_out[59] O
la_data_out[5] O
la_data_out[60] O
la_data_out[61] O
la_data_out[62] O
la_data_out[63] O
la_data_out[6] O
la_data_out[7] O
la_data_out[8] O
la_data_out[9] O
la_oenb[0] I
la_oenb[10] I
la_oenb[11] I
la_oenb[12] I
la_oenb[13] I
la_oenb[14] I
la_oenb[15] I
la_oenb[16] I
la_oenb[17] I
la_oenb[18] I
la_oenb[19] I
la_oenb[1] I
la_oenb[20] I
la_oenb[21] I
la_oenb[22] I
la_oenb[23] I
la_oenb[24] I
la_oenb[25] I
la_oenb[26] I
la_oenb[27] I
la_oenb[28] I
la_oenb[29] I
la_oenb[2] I
la_oenb[30] I
la_oenb[31] I
la_oenb[32] I
la_oenb[33] I
la_oenb[34] I
la_oenb[35] I
la_oenb[36] I
la_oenb[37] I
la_oenb[38] I
la_oenb[39] I
la_oenb[3] I
la_oenb[40] I
la_oenb[41] I
la_oenb[42] I
la_oenb[43] I
la_oenb[44] I
la_oenb[45] I
la_oenb[46] I
la_oenb[47] I
la_oenb[48] I
la_oenb[49] I
la_oenb[4] I
la_oenb[50] I
la_oenb[51] I
la_oenb[52] I
la_oenb[53] I
la_oenb[54] I
la_oenb[55] I
la_oenb[56] I
la_oenb[57] I
la_oenb[58] I
la_oenb[59] I
la_oenb[5] I
la_oenb[60] I
la_oenb[61] I
la_oenb[62] I
la_oenb[63] I
la_oenb[6] I
la_oenb[7] I
la_oenb[8] I
la_oenb[9] I
user_clock2 I
user_irq[0] O
user_irq[1] O
user_irq[2] O
wb_clk_i I
wb_rst_i I
wbs_ack_o O
wbs_adr_i[0] I
wbs_adr_i[10] I
wbs_adr_i[11] I
wbs_adr_i[12] I
wbs_adr_i[13] I
wbs_adr_i[14] I
wbs_adr_i[15] I
wbs_adr_i[16] I
wbs_adr_i[17] I
wbs_adr_i[18] I
wbs_adr_i[19] I
wbs_adr_i[1] I
wbs_adr_i[20] I
wbs_adr_i[21] I
wbs_adr_i[22] I
wbs_adr_i[23] I
wbs_adr_i[24] I
wbs_adr_i[25] I
wbs_adr_i[26] I
wbs_adr_i[27] I
wbs_adr_i[28] I
wbs_adr_i[29] I
wbs_adr_i[2] I
wbs_adr_i[30] I
wbs_adr_i[31] I
wbs_adr_i[3] I
wbs_adr_i[4] I
wbs_adr_i[5] I
wbs_adr_i[6] I
wbs_adr_i[7] I
wbs_adr_i[8] I
wbs_adr_i[9] I
wbs_cyc_i I
wbs_dat_i[0] I
wbs_dat_i[10] I
wbs_dat_i[11] I
wbs_dat_i[12] I
wbs_dat_i[13] I
wbs_dat_i[14] I
wbs_dat_i[15] I
wbs_dat_i[16] I
wbs_dat_i[17] I
wbs_dat_i[18] I
wbs_dat_i[19] I
wbs_dat_i[1] I
wbs_dat_i[20] I
wbs_dat_i[21] I
wbs_dat_i[22] I
wbs_dat_i[23] I
wbs_dat_i[24] I
wbs_dat_i[25] I
wbs_dat_i[26] I
wbs_dat_i[27] I
wbs_dat_i[28] I
wbs_dat_i[29] I
wbs_dat_i[2] I
wbs_dat_i[30] I
wbs_dat_i[31] I
wbs_dat_i[3] I
wbs_dat_i[4] I
wbs_dat_i[5] I
wbs_dat_i[6] I
wbs_dat_i[7] I
wbs_dat_i[8] I
wbs_dat_i[9] I
wbs_dat_o[0] O
wbs_dat_o[10] O
wbs_dat_o[11] O
wbs_dat_o[12] O
wbs_dat_o[13] O
wbs_dat_o[14] O
wbs_dat_o[15] O
wbs_dat_o[16] O
wbs_dat_o[17] O
wbs_dat_o[18] O
wbs_dat_o[19] O
wbs_dat_o[1] O
wbs_dat_o[20] O
wbs_dat_o[21] O
wbs_dat_o[22] O
wbs_dat_o[23] O
wbs_dat_o[24] O
wbs_dat_o[25] O
wbs_dat_o[26] O
wbs_dat_o[27] O
wbs_dat_o[28] O
wbs_dat_o[29] O
wbs_dat_o[2] O
wbs_dat_o[30] O
wbs_dat_o[31] O
wbs_dat_o[3] O
wbs_dat_o[4] O
wbs_dat_o[5] O
wbs_dat_o[6] O
wbs_dat_o[7] O
wbs_dat_o[8] O
wbs_dat_o[9] O
wbs_sel_i[0] I
wbs_sel_i[1] I
wbs_sel_i[2] I
wbs_sel_i[3] I
wbs_stb_i I
wbs_we_i I

*D_NET *19 0.523032
*CONN
*P io_in[26] I
*I *419:io_oeb[0] O *D user_proj_example
*I *419:io_in[0] I *D user_proj_example
*I *419:io_out[0] O *D user_proj_example
*CAP
1 io_in[26] 0.000790409
2 *419:io_oeb[0] 0.0039201
3 *419:io_in[0] 0.0035394
4 *419:io_out[0] 0.000564344
5 *19:37 0.0846588
6 *19:35 0.0838684
7 *19:33 0.125211
8 *19:31 0.125319
9 *19:7 0.00791523
10 *19:37 io_in[33] 0
11 *19:37 *24:37 0.0872451
*RES
1 *419:io_out[0] *19:7 9.544 
2 *19:7 *419:io_in[0] 36.688 
3 *19:7 *419:io_oeb[0] 37.936 
4 *419:io_oeb[0] *19:31 9.88029 
5 *19:31 *19:33 451.137 
6 *19:33 *19:35 4.5 
7 *19:35 *19:37 856.912 
8 *19:37 io_in[26] 11.624 
*END

*D_NET *20 0.530252
*CONN
*P io_in[27] I
*I *419:io_oeb[1] O *D user_proj_example
*I *419:io_in[1] I *D user_proj_example
*I *419:io_out[1] O *D user_proj_example
*CAP
1 io_in[27] 0.154611
2 *419:io_oeb[1] 0.000677376
3 *419:io_in[1] 0.00366511
4 *419:io_out[1] 0.000564344
5 *20:35 0.154611
6 *20:33 0.0510882
7 *20:23 0.0550801
8 *20:7 0.00754392
9 *20:33 *419:io_in[2] 0.00228015
10 *20:33 *419:io_in[3] 0.00317629
11 *20:33 *419:io_oeb[6] 0.0108277
12 *20:33 *419:io_oeb[7] 0.00470181
13 *20:33 *21:19 0.00234369
14 *20:33 *21:29 0.00904003
15 *20:33 *22:19 0.00327166
16 *20:33 *22:29 0.0140711
17 *20:33 *26:9 0.0108277
18 *20:33 *26:11 0.0188184
19 *20:33 *27:9 0.00479078
20 *20:33 *27:11 0.0182616
*RES
1 *419:io_out[1] *20:7 9.544 
2 *20:7 *419:io_in[1] 36.688 
3 *20:7 *20:23 28.392 
4 *20:23 *419:io_oeb[1] 10.584 
5 *20:23 *20:33 697.944 
6 *20:33 *20:35 4.5 
7 *20:35 io_in[27] 1067.51 
*END

*D_NET *21 0.605592
*CONN
*P io_in[28] I
*I *419:io_oeb[2] O *D user_proj_example
*I *419:io_in[2] I *D user_proj_example
*I *419:io_out[2] O *D user_proj_example
*CAP
1 io_in[28] 0.154493
2 *419:io_oeb[2] 0.00058695
3 *419:io_in[2] 0.00276544
4 *419:io_out[2] 0.00058695
5 *21:31 0.154493
6 *21:29 0.0271947
7 *21:19 0.0298395
8 *21:7 0.00541026
9 *21:29 *419:io_in[3] 0.0108277
10 *21:29 *419:io_in[4] 0.0108948
11 *21:29 *419:io_in[5] 0.010833
12 *21:29 *419:io_oeb[4] 0.0108109
13 *21:29 *419:io_oeb[5] 0.0108874
14 *21:29 *22:19 0.0108713
15 *21:29 *22:29 0.151433
16 *20:33 *419:io_in[2] 0.00228015
17 *20:33 *21:19 0.00234369
18 *20:33 *21:29 0.00904003
*RES
1 *419:io_out[2] *21:7 9.752 
2 *21:7 *419:io_in[2] 36.896 
3 *21:7 *21:19 27.144 
4 *21:19 *419:io_oeb[2] 9.752 
5 *21:19 *21:29 538.2 
6 *21:29 *21:31 4.5 
7 *21:31 io_in[28] 1066.68 
*END

*D_NET *22 0.550689
*CONN
*P io_in[29] I
*I *419:io_oeb[3] O *D user_proj_example
*I *419:io_in[3] I *D user_proj_example
*I *419:io_out[3] O *D user_proj_example
*CAP
1 io_in[29] 0.121349
2 *419:io_oeb[3] 0.000797743
3 *419:io_in[3] 0.0010464
4 *419:io_out[3] 0.000631073
5 *22:31 0.121349
6 *22:29 0.00238113
7 *22:19 0.00348433
8 *22:7 0.00198293
9 *22:29 *419:io_oeb[7] 0.0107934
10 *22:29 *27:9 0.0108757
11 *22:29 *27:11 0.0823484
12 *20:33 *419:io_in[3] 0.00317629
13 *20:33 *22:19 0.00327166
14 *20:33 *22:29 0.0140711
15 *21:29 *419:io_in[3] 0.0108277
16 *21:29 *22:19 0.0108713
17 *21:29 *22:29 0.151433
*RES
1 *419:io_out[3] *22:7 9.96 
2 *22:7 *419:io_in[3] 37.104 
3 *22:7 *22:19 27.144 
4 *22:19 *419:io_oeb[3] 9.96 
5 *22:19 *22:29 378.456 
6 *22:29 *22:31 4.5 
7 *22:31 io_in[29] 1066.88 
*END

*D_NET *24 0.375218
*CONN
*P io_in[30] I
*I *419:io_oeb[4] O *D user_proj_example
*I *419:io_in[4] I *D user_proj_example
*I *419:io_out[4] O *D user_proj_example
*CAP
1 io_in[30] 0.000834531
2 *419:io_oeb[4] 0.00245278
3 *419:io_in[4] 0.00209841
4 *419:io_out[4] 0.000564344
5 *24:37 0.0101601
6 *24:35 0.00932557
7 *24:33 0.106168
8 *24:31 0.106289
9 *24:7 0.00499526
10 *24:37 io_in[32] 1.5754e-06
11 *24:37 *25:37 0.0233775
12 *19:37 *24:37 0.0872451
13 *21:29 *419:io_in[4] 0.0108948
14 *21:29 *419:io_oeb[4] 0.0108109
*RES
1 *419:io_out[4] *24:7 9.544 
2 *24:7 *419:io_in[4] 36.688 
3 *24:7 *419:io_oeb[4] 37.936 
4 *419:io_oeb[4] *24:31 9.99171 
5 *24:31 *24:33 451.048 
6 *24:33 *24:35 4.5 
7 *24:35 *24:37 217.824 
8 *24:37 io_in[30] 11.832 
*END

*D_NET *25 0.276259
*CONN
*P io_in[31] I
*I *419:io_oeb[5] O *D user_proj_example
*I *419:io_in[5] I *D user_proj_example
*I *419:io_out[5] O *D user_proj_example
*CAP
1 io_in[31] 0.000878653
2 *419:io_oeb[5] 0.00234868
3 *419:io_in[5] 0.0021623
4 *419:io_out[5] 0.000724211
5 *25:37 0.00419974
6 *25:35 0.00332109
7 *25:33 0.106146
8 *25:31 0.106243
9 *25:7 0.00513824
10 *21:29 *419:io_in[5] 0.010833
11 *21:29 *419:io_oeb[5] 0.0108874
12 *24:37 *25:37 0.0233775
*RES
1 *419:io_out[5] *25:7 9.544 
2 *25:7 *419:io_in[5] 36.688 
3 *25:7 *419:io_oeb[5] 37.936 
4 *419:io_oeb[5] *25:31 9.76886 
5 *25:31 *25:33 450.959 
6 *25:33 *25:35 4.5 
7 *25:35 *25:37 58.3031 
8 *25:37 io_in[31] 12.04 
*END

*D_NET *26 0.301582
*CONN
*P io_in[32] I
*I *419:io_oeb[6] O *D user_proj_example
*I *419:io_in[6] I *D user_proj_example
*I *419:io_out[6] O *D user_proj_example
*CAP
1 io_in[32] 0.00102234
2 *419:io_oeb[6] 0.000824661
3 *419:io_in[6] 0.000719317
4 *419:io_out[6] 0.000719317
5 *26:15 0.107873
6 *26:13 0.106851
7 *26:11 0.000110006
8 *26:9 0.000934667
9 *26:7 0.00164932
10 *419:io_oeb[6] *27:11 0.0107919
11 *26:9 *27:11 0.0107919
12 *26:11 *27:11 0.0188184
13 *20:33 *419:io_oeb[6] 0.0108277
14 *20:33 *26:9 0.0108277
15 *20:33 *26:11 0.0188184
16 *24:37 io_in[32] 1.5754e-06
*RES
1 *419:io_out[6] *26:7 10.376 
2 *26:7 *26:9 27.144 
3 *26:9 *26:11 46.8706 
4 *26:11 *26:13 4.5 
5 *26:13 *26:15 453.543 
6 *26:15 io_in[32] 17.7174 
7 *26:9 *419:io_in[6] 10.376 
8 *26:7 *419:io_oeb[6] 37.52 
*END

*D_NET *27 0.394746
*CONN
*P io_in[33] I
*I *419:io_oeb[7] O *D user_proj_example
*I *419:io_in[7] I *D user_proj_example
*I *419:io_out[7] O *D user_proj_example
*CAP
1 io_in[33] 0.0010436
2 *419:io_oeb[7] 0.00103281
3 *419:io_in[7] 0.000675195
4 *419:io_out[7] 0.000675195
5 *27:15 0.107848
6 *27:13 0.106804
7 *27:11 0.000955619
8 *27:9 0.00173055
9 *27:7 0.00180774
10 *419:io_oeb[6] *27:11 0.0107919
11 *19:37 io_in[33] 0
12 *20:33 *419:io_oeb[7] 0.00470181
13 *20:33 *27:9 0.00479078
14 *20:33 *27:11 0.0182616
15 *22:29 *419:io_oeb[7] 0.0107934
16 *22:29 *27:9 0.0108757
17 *22:29 *27:11 0.0823484
18 *26:9 *27:11 0.0107919
19 *26:11 *27:11 0.0188184
*RES
1 *419:io_out[7] *27:7 10.168 
2 *27:7 *27:9 27.144 
3 *27:9 *27:11 205.879 
4 *27:11 *27:13 4.5 
5 *27:13 *27:15 453.454 
6 *27:15 io_in[33] 18.0369 
7 *27:9 *419:io_in[7] 10.168 
8 *27:7 *419:io_oeb[7] 37.312 
*END

*D_NET *28 0.124265
*CONN
*P io_in[34] I
*I *419:io_in[8] I *D user_proj_example
*I *419:io_oeb[8] O *D user_proj_example
*I *419:io_out[8] O *D user_proj_example
*CAP
1 io_in[34] 0.00191306
2 *419:io_in[8] 0.000428686
3 *419:io_oeb[8] 0.000423171
4 *419:io_out[8] 0.000428686
5 *28:37 0.00762562
6 *28:19 0.0457775
7 *28:17 0.0445642
8 *28:9 0.00830055
9 *28:7 0.0148033
*RES
1 *419:io_out[8] *28:7 8.296 
2 *28:7 *28:9 54.6 
3 *28:9 *28:17 13.16 
4 *28:17 *28:19 216.632 
5 *28:19 io_in[34] 20.568 
6 *28:9 *419:io_oeb[8] 8.296 
7 *28:7 *28:37 54.6 
8 *28:37 *419:io_in[8] 8.296 
*END

*D_NET *29 0.0914249
*CONN
*P io_in[35] I
*I *419:io_in[9] I *D user_proj_example
*I *419:io_oeb[9] O *D user_proj_example
*I *419:io_out[9] O *D user_proj_example
*CAP
1 io_in[35] 0.00228864
2 *419:io_in[9] 0.000428686
3 *419:io_oeb[9] 0.000428686
4 *419:io_out[9] 0.000428686
5 *29:29 0.00764487
6 *29:11 0.0140679
7 *29:9 0.0194241
8 *29:7 0.014861
9 *29:11 *30:9 0.00998456
10 *29:11 *30:29 0.0218678
*RES
1 *419:io_out[9] *29:7 8.296 
2 *29:7 *29:9 54.6 
3 *29:9 *29:11 133.848 
4 *29:11 io_in[35] 22.44 
5 *29:9 *419:io_oeb[9] 8.296 
6 *29:7 *29:29 54.6 
7 *29:29 *419:io_in[9] 8.296 
*END

*D_NET *30 0.0833343
*CONN
*P io_in[36] I
*I *419:io_in[10] I *D user_proj_example
*I *419:io_oeb[10] O *D user_proj_example
*I *419:io_out[10] O *D user_proj_example
*CAP
1 io_in[36] 0.00224452
2 *419:io_in[10] 0.000472808
3 *419:io_oeb[10] 0.000451292
4 *419:io_out[10] 0.000472808
5 *30:29 0.00660663
6 *30:11 0.0104466
7 *30:9 0.016417
8 *30:7 0.0143703
9 *29:11 *30:9 0.00998456
10 *29:11 *30:29 0.0218678
*RES
1 *419:io_out[10] *30:7 8.504 
2 *30:7 *30:9 54.6 
3 *30:9 *30:11 48.984 
4 *30:11 io_in[36] 22.232 
5 *30:9 *419:io_oeb[10] 8.504 
6 *30:7 *30:29 54.6 
7 *30:29 *419:io_in[10] 8.504 
*END

*D_NET *31 0.0401072
*CONN
*P io_in[37] I
*I *419:io_in[11] I *D user_proj_example
*I *419:io_oeb[11] O *D user_proj_example
*I *419:io_out[11] O *D user_proj_example
*CAP
1 io_in[37] 0.00222303
2 *419:io_in[11] 0.00054774
3 *419:io_oeb[11] 0.00641206
4 *419:io_out[11] 0.000447965
5 *31:33 0.00768823
6 *31:13 0.0119174
7 *31:9 0.0108708
*RES
1 *419:io_out[11] *31:9 8.504 
2 *31:9 *31:13 19.448 
3 *31:13 *419:io_oeb[11] 44.176 
4 *31:13 io_in[37] 22.232 
5 *31:9 *31:33 54.496 
6 *31:33 *419:io_in[11] 8.296 
*END

*D_NET *313 0.134832
*CONN
*P wb_clk_i I
*I *419:wb_clk_i I *D user_proj_example
*CAP
1 wb_clk_i 0.000160759
2 *419:wb_clk_i 0.000696317
3 *313:13 0.0158881
4 *313:11 0.0153525
5 *313:13 *314:13 0.102734
*RES
1 wb_clk_i *313:11 6.008 
2 *313:11 *313:13 260.312 
3 *313:13 *419:wb_clk_i 10.168 
*END

*D_NET *314 0.252181
*CONN
*P wb_rst_i I
*I *419:wb_rst_i I *D user_proj_example
*CAP
1 wb_rst_i 0.000136515
2 *419:wb_rst_i 0.00065168
3 *314:13 0.074587
4 *314:11 0.0740718
5 *313:13 *314:13 0.102734
*RES
1 wb_rst_i *314:11 5.8 
2 *314:11 *314:13 777.608 
3 *314:13 *419:wb_rst_i 9.96 
*END
